REMARK  Name = 
REMARK  6 active torsions:
REMARK  status: ('A' for Active; 'I' for Inactive)
REMARK    1  A    between atoms: C_3  and  C_5
REMARK    2  A    between atoms: C_5  and  C_6
REMARK    3  A    between atoms: C_6  and  C_7
REMARK    4  A    between atoms: C_11  and  N_12
REMARK    5  A    between atoms: C_21  and  O_22
REMARK    6  A    between atoms: O_22  and  C_23
REMARK                            x       y       z     vdW  Elec       q    Type
REMARK                         _______ _______ _______ _____ _____    ______ ____
ROOT
ATOM      1 CL   UNL     1       0.929   0.041  -0.056  0.00  0.00    -0.145 Cl
ATOM      2  H   UNL     1       2.259   0.041  -0.056  0.00  0.00    +0.145 HD
ENDROOT
TORSDOF 0
REMARK  Name = 
REMARK  6 active torsions:
REMARK  status: ('A' for Active; 'I' for Inactive)
REMARK    1  A    between atoms: C_3  and  C_5
REMARK    2  A    between atoms: C_5  and  C_6
REMARK    3  A    between atoms: C_6  and  C_7
REMARK    4  A    between atoms: C_11  and  N_12
REMARK    5  A    between atoms: C_21  and  O_22
REMARK    6  A    between atoms: O_22  and  C_23
REMARK                            x       y       z     vdW  Elec       q    Type
REMARK                         _______ _______ _______ _____ _____    ______ ____
ROOT
ATOM      1  C   UNL     1       3.039   0.023  -1.217  0.00  0.00    +0.016 C 
ATOM      2  C   UNL     1       3.870   1.310  -1.294  0.00  0.00    +0.017 C 
ATOM      3  C   UNL     1       4.744   1.344  -2.543  0.00  0.00    +0.045 C 
ATOM      4  C   UNL     1       5.649   0.125  -2.616  0.00  0.00    +0.174 C 
ATOM      5  C   UNL     1       4.815  -1.149  -2.555  0.00  0.00    +0.045 C 
ATOM      6  C   UNL     1       3.956  -1.194  -1.300  0.00  0.00    +0.017 C 
ENDROOT
BRANCH   1   8
ATOM      7  O   UNL     1       2.489  -0.006  -3.573  0.00  0.00    -0.549 OA
ATOM      8  C   UNL     1       2.058  -0.009  -2.378  0.00  0.00    +0.048 C 
ATOM      9  O   UNL     1       0.661  -0.042  -2.126  0.00  0.00    -0.549 OA
ENDBRANCH   1   8
BRANCH   1  10
ATOM     10  C   UNL     1       2.279  -0.008   0.099  0.00  0.00    +0.068 C 
BRANCH  10  11
ATOM     11  C   UNL     1       1.357   1.198   0.181  0.00  0.00    +0.044 A 
ATOM     12  C   UNL     1       0.382   1.351  -0.785  0.00  0.00    +0.023 A 
ATOM     13  C   UNL     1      -0.461   2.465  -0.739  0.00  0.00    +0.005 A 
ATOM     14  C   UNL     1      -0.282   3.366   0.303  0.00  0.00    +0.044 A 
ATOM     15  C   UNL     1       0.699   3.124   1.236  0.00  0.00    +0.125 A 
ATOM     16  N   UNL     1       1.522   2.072   1.186  0.00  0.00    -0.237 NA
BRANCH  15  17
ATOM     17  N   UNL     1       0.851   4.073   2.349  0.00  0.00    -0.279 N 
ATOM     18  C   UNL     1       1.887   3.852   3.368  0.00  0.00    +0.163 A 
ATOM     19  N   UNL     1       3.157   3.795   3.088  0.00  0.00    -0.233 NA
ATOM     20  C   UNL     1       3.941   3.641   4.219  0.00  0.00    +0.120 A 
ATOM     21  C   UNL     1       3.219   3.555   5.380  0.00  0.00    +0.068 A 
ATOM     22  S   UNL     1       1.512   3.693   5.049  0.00  0.00    -0.061 S 
ATOM     23  H   UNL     1       0.237   4.886   2.413  0.00  0.00    +0.155 HD
ENDBRANCH  15  17
ENDBRANCH  10  11
ENDBRANCH   1  10
BRANCH   4  24
ATOM     24  O   UNL     1       6.549   0.146  -1.518  0.00  0.00    -0.486 OA
BRANCH  24  25
ATOM     25  C   UNL     1       6.047   0.124  -0.189  0.00  0.00    +0.159 A 
ATOM     26  C   UNL     1       5.266  -0.926   0.283  0.00  0.00    +0.049 A 
ATOM     27  C   UNL     1       4.750  -0.921   1.559  0.00  0.00    +0.007 A 
ATOM     28  C   UNL     1       4.994   0.119   2.442  0.00  0.00    +0.041 A 
ATOM     29  C   UNL     1       5.803   1.142   1.983  0.00  0.00    +0.162 A 
ATOM     30  F   UNL     1       6.114   2.170   2.778  0.00  0.00    -0.202 F 
ATOM     31  C   UNL     1       6.305   1.128   0.690  0.00  0.00    +0.200 A 
ATOM     32  F   UNL     1       7.104   2.162   0.328  0.00  0.00    -0.199 F 
ENDBRANCH  24  25
ENDBRANCH   4  24
TORSDOF 6
