
 OpenBabel10152418293D

 38 41  0  0  0  0  0  0  0  0999 V2000
    0.7210  -11.0280  -26.0940 C   0  0  0  0  0  0  0  0  0  0  0  0
    1.2540  -11.9300  -25.1730 C   0  0  0  0  0  3  0  0  0  0  0  0
    2.6250  -11.9550  -24.9410 C   0  0  0  0  0  3  0  0  0  0  0  0
    3.4560  -11.0530  -25.6010 C   0  0  0  0  0  3  0  0  0  0  0  0
    2.9340  -10.0580  -26.4420 C   0  0  0  0  0  0  0  0  0  0  0  0
    1.5510  -10.0590  -26.6760 C   0  0  0  0  0  3  0  0  0  0  0  0
   -1.7540  -10.8820  -25.6390 C   0  0  0  0  0  0  0  0  0  0  0  0
   -2.8770  -11.1940  -26.0230 O   0  0  0  0  0  0  0  0  0  0  0  0
   -0.6430  -11.1630  -26.4060 N   0  0  0  0  0  0  0  0  0  0  0  0
   -0.8840  -11.4010  -27.3620 H   0  0  0  0  0  0  0  0  0  0  0  0
   -1.5170   -8.5850  -22.0500 C   0  0  0  0  0  0  0  0  0  0  0  0
   -1.3470   -9.9680  -22.0020 C   0  0  0  0  0  3  0  0  0  0  0  0
   -1.3870  -10.7090  -23.1830 C   0  0  0  0  0  0  0  0  0  0  0  0
   -1.2150  -12.0370  -23.1050 F   0  0  0  0  0  0  0  0  0  0  0  0
   -1.6200  -10.0900  -24.4090 C   0  0  0  0  0  0  0  0  0  0  0  0
   -1.7360   -8.7080  -24.4590 C   0  0  0  0  0  0  0  0  0  0  0  0
   -1.9660   -8.0760  -25.6190 F   0  0  0  0  0  0  0  0  0  0  0  0
   -1.6840   -7.9550  -23.2880 C   0  0  0  0  0  3  0  0  0  0  0  0
   -1.9830   -8.2980  -19.7390 C   0  0  0  0  0  1  0  0  0  0  0  0
   -1.5310   -7.7460  -20.9720 O   0  0  0  0  0  0  0  0  0  0  0  0
    3.8370   -9.0390  -27.1220 C   0  0  0  0  0  2  0  0  0  0  0  0
    3.5410   -7.6800  -26.6990 N   0  0  0  0  0  0  0  0  0  0  0  0
    4.2390   -7.1680  -26.1870 H   0  0  0  0  0  0  0  0  0  0  0  0
    2.4660   -7.0210  -27.2780 C   0  0  0  0  0  0  0  0  0  0  0  0
    2.5690   -6.7410  -28.5890 N   0  0  0  0  0  0  0  0  0  0  0  0
    1.7220   -5.8400  -29.0810 C   0  0  0  0  0  3  0  0  0  0  0  0
    0.8480   -5.1280  -28.3680 N   0  0  0  0  0  0  0  0  0  0  0  0
    0.7130   -5.4330  -27.0640 C   0  0  0  0  0  0  0  0  0  0  0  0
   -0.1490   -4.7130  -26.2300 C   0  0  0  0  0  0  0  0  0  0  0  0
   -0.3890   -5.0590  -24.8940 C   0  0  0  0  0  3  0  0  0  0  0  0
    0.2970   -6.1220  -24.3320 C   0  0  0  0  0  3  0  0  0  0  0  0
    1.2420   -6.7950  -25.1020 C   0  0  0  0  0  3  0  0  0  0  0  0
    1.4650   -6.4560  -26.4650 C   0  0  0  0  0  0  0  0  0  0  0  0
   -0.7640   -3.4540  -26.6980 C   0  0  0  0  0  0  0  0  0  0  0  0
    0.1040   -2.5850  -27.3120 N   0  0  0  0  0  0  0  0  0  0  0  0
   -1.9140   -3.1680  -26.4490 O   0  0  0  0  0  0  0  0  0  0  0  0
   -0.2540   -1.6910  -27.6160 H   0  0  0  0  0  0  0  0  0  0  0  0
    1.0700   -2.8140  -27.4930 H   0  0  0  0  0  0  0  0  0  0  0  0
  1  2  1  0  0  0  0
  2  3  2  0  0  0  0
  4  3  1  0  0  0  0
  5  4  2  0  0  0  0
  6  5  1  0  0  0  0
  6  1  2  0  0  0  0
  7 15  1  0  0  0  0
  8  7  2  0  0  0  0
  9  1  1  0  0  0  0
  9  7  1  0  0  0  0
 10  9  1  0  0  0  0
 11 12  1  0  0  0  0
 11 20  1  0  0  0  0
 13 14  1  0  0  0  0
 13 12  2  0  0  0  0
 15 13  1  0  0  0  0
 16 15  2  0  0  0  0
 16 18  1  0  0  0  0
 17 16  1  0  0  0  0
 18 11  2  0  0  0  0
 20 19  1  0  0  0  0
 21 22  1  0  0  0  0
 21  5  1  0  0  0  0
 22 23  1  0  0  0  0
 24 22  1  0  0  0  0
 24 33  1  0  0  0  0
 25 24  2  0  0  0  0
 26 25  1  0  0  0  0
 26 27  2  0  0  0  0
 27 28  1  0  0  0  0
 28 33  2  0  0  0  0
 28 29  1  0  0  0  0
 29 30  2  0  0  0  0
 30 31  1  0  0  0  0
 32 31  2  0  0  0  0
 33 32  1  0  0  0  0
 34 36  2  0  0  0  0
 34 29  1  0  0  0  0
 35 34  1  0  0  0  0
 37 35  1  0  0  0  0
 38 35  1  0  0  0  0
M  END
>  <minimizedAffinity>
-7.29795218

$$$$
