
 OpenBabel10152418293D

 38 41  0  0  0  0  0  0  0  0999 V2000
   -1.7890   -8.5420  -22.5850 C   0  0  0  0  0  0  0  0  0  0  0  0
   -1.4750   -7.4880  -21.7270 C   0  0  0  0  0  3  0  0  0  0  0  0
   -1.0220   -6.2810  -22.2470 C   0  0  0  0  0  3  0  0  0  0  0  0
   -0.9200   -6.1160  -23.6270 C   0  0  0  0  0  3  0  0  0  0  0  0
   -1.3400   -7.1170  -24.5160 C   0  0  0  0  0  0  0  0  0  0  0  0
   -1.7790   -8.3330  -23.9720 C   0  0  0  0  0  3  0  0  0  0  0  0
   -1.8370  -11.0580  -22.4590 C   0  0  0  0  0  0  0  0  0  0  0  0
   -2.2880  -12.0370  -21.8710 O   0  0  0  0  0  0  0  0  0  0  0  0
   -2.0810   -9.7830  -21.9940 N   0  0  0  0  0  0  0  0  0  0  0  0
   -2.4260   -9.7790  -21.0400 H   0  0  0  0  0  0  0  0  0  0  0  0
    0.8460  -11.5270  -25.7440 C   0  0  0  0  0  0  0  0  0  0  0  0
    1.2670  -11.8420  -24.4530 C   0  0  0  0  0  3  0  0  0  0  0  0
    0.3740  -11.7240  -23.3880 C   0  0  0  0  0  0  0  0  0  0  0  0
    0.8080  -12.0380  -22.1580 F   0  0  0  0  0  0  0  0  0  0  0  0
   -0.9280  -11.2700  -23.5920 C   0  0  0  0  0  0  0  0  0  0  0  0
   -1.3580  -11.0080  -24.8850 C   0  0  0  0  0  0  0  0  0  0  0  0
   -2.6020  -10.5660  -25.1210 F   0  0  0  0  0  0  0  0  0  0  0  0
   -0.4800  -11.1370  -25.9580 C   0  0  0  0  0  3  0  0  0  0  0  0
    3.0220  -11.7390  -26.6710 C   0  0  0  0  0  1  0  0  0  0  0  0
    1.6220  -11.5690  -26.8680 O   0  0  0  0  0  0  0  0  0  0  0  0
   -1.2780   -6.9180  -26.0240 C   0  0  0  0  0  2  0  0  0  0  0  0
   -0.7480   -5.6130  -26.3800 N   0  0  0  0  0  0  0  0  0  0  0  0
   -1.0930   -4.8000  -25.8990 H   0  0  0  0  0  0  0  0  0  0  0  0
    0.4240   -5.5490  -27.1210 C   0  0  0  0  0  0  0  0  0  0  0  0
    0.3970   -4.7740  -28.2190 N   0  0  0  0  0  0  0  0  0  0  0  0
    1.3740   -4.9520  -29.1060 C   0  0  0  0  0  3  0  0  0  0  0  0
    2.3170   -5.8930  -29.0410 N   0  0  0  0  0  0  0  0  0  0  0  0
    2.3720   -6.6440  -27.9250 C   0  0  0  0  0  0  0  0  0  0  0  0
    3.3010   -7.6810  -27.7860 C   0  0  0  0  0  0  0  0  0  0  0  0
    3.4530   -8.4200  -26.6060 C   0  0  0  0  0  3  0  0  0  0  0  0
    2.6110   -8.1730  -25.5350 C   0  0  0  0  0  3  0  0  0  0  0  0
    1.6050   -7.2220  -25.6750 C   0  0  0  0  0  3  0  0  0  0  0  0
    1.4700   -6.4560  -26.8660 C   0  0  0  0  0  0  0  0  0  0  0  0
    4.0960   -8.1330  -28.9460 C   0  0  0  0  0  0  0  0  0  0  0  0
    4.8830   -7.1630  -29.5150 N   0  0  0  0  0  0  0  0  0  0  0  0
    3.9670   -9.2400  -29.4220 O   0  0  0  0  0  0  0  0  0  0  0  0
    5.4180   -7.4070  -30.3370 H   0  0  0  0  0  0  0  0  0  0  0  0
    4.9670   -6.2330  -29.1340 H   0  0  0  0  0  0  0  0  0  0  0  0
  1  9  1  0  0  0  0
  1  2  1  0  0  0  0
  3  2  2  0  0  0  0
  4  3  1  0  0  0  0
  5  6  1  0  0  0  0
  5  4  2  0  0  0  0
  6  1  2  0  0  0  0
  7  9  1  0  0  0  0
  7  8  2  0  0  0  0
  9 10  1  0  0  0  0
 11 12  1  0  0  0  0
 12 13  2  0  0  0  0
 13 14  1  0  0  0  0
 15 13  1  0  0  0  0
 15  7  1  0  0  0  0
 16 15  2  0  0  0  0
 17 16  1  0  0  0  0
 18 11  2  0  0  0  0
 18 16  1  0  0  0  0
 20 19  1  0  0  0  0
 20 11  1  0  0  0  0
 21  5  1  0  0  0  0
 22 21  1  0  0  0  0
 22 23  1  0  0  0  0
 24 33  1  0  0  0  0
 24 22  1  0  0  0  0
 25 24  2  0  0  0  0
 26 27  2  0  0  0  0
 26 25  1  0  0  0  0
 27 28  1  0  0  0  0
 28 29  2  0  0  0  0
 28 33  1  0  0  0  0
 29 30  1  0  0  0  0
 30 31  2  0  0  0  0
 32 31  1  0  0  0  0
 33 32  2  0  0  0  0
 34 29  1  0  0  0  0
 35 38  1  0  0  0  0
 35 34  1  0  0  0  0
 36 34  2  0  0  0  0
 37 35  1  0  0  0  0
M  END
>  <minimizedAffinity>
-6.64443922

$$$$
