REMARK  Name = 
REMARK  8 active torsions:
REMARK  status: ('A' for Active; 'I' for Inactive)
REMARK    1  A    between atoms: C_1  and  O_2
REMARK    2  A    between atoms: O_2  and  C_3
REMARK    3  A    between atoms: C_7  and  C_8
REMARK    4  A    between atoms: N_10  and  C_11
REMARK    5  A    between atoms: C_15  and  C_16
REMARK    6  A    between atoms: C_16  and  N_17
REMARK    7  A    between atoms: N_17  and  C_18
REMARK    8  A    between atoms: C_23  and  C_24
REMARK                            x       y       z     vdW  Elec       q    Type
REMARK                         _______ _______ _______ _____ _____    ______ ____
ROOT
ATOM      1  C   UNL     1       3.876   4.578   3.132  0.00  0.00    +0.034 A 
ATOM      2  C   UNL     1       5.028   4.270   3.855  0.00  0.00    +0.023 A 
ATOM      3  C   UNL     1       6.074   3.593   3.238  0.00  0.00    +0.002 A 
ATOM      4  C   UNL     1       5.983   3.259   1.888  0.00  0.00    +0.005 A 
ATOM      5  C   UNL     1       4.887   3.660   1.108  0.00  0.00    -0.029 A 
ATOM      6  C   UNL     1       3.835   4.328   1.752  0.00  0.00    +0.028 A 
ENDROOT
BRANCH   1   9
ATOM      7  C   UNL     1       1.438   4.971   3.636  0.00  0.00    +0.254 C 
ATOM      8  O   UNL     1       0.628   5.627   4.285  0.00  0.00    -0.270 OA
ATOM      9  N   UNL     1       2.793   5.112   3.851  0.00  0.00    -0.281 N 
ATOM     10  H   UNL     1       2.998   5.590   4.722  0.00  0.00    +0.155 HD
BRANCH   7  15
ATOM     11  C   UNL     1       0.109   2.005   0.871  0.00  0.00    +0.126 A 
ATOM     12  C   UNL     1       0.882   1.633   1.970  0.00  0.00    +0.085 A 
ATOM     13  C   UNL     1       1.281   2.601   2.891  0.00  0.00    +0.142 A 
ATOM     14  F   UNL     1       2.021   2.212   3.941  0.00  0.00    -0.204 F 
ATOM     15  C   UNL     1       0.940   3.941   2.716  0.00  0.00    +0.107 A 
ATOM     16  C   UNL     1       0.126   4.298   1.650  0.00  0.00    +0.142 A 
ATOM     17  F   UNL     1      -0.220   5.577   1.445  0.00  0.00    -0.204 F 
ATOM     18  C   UNL     1      -0.291   3.338   0.731  0.00  0.00    +0.085 A 
BRANCH  11  20
ATOM     19  C   UNL     1       0.302  -0.109  -0.193  0.00  0.00    +0.277 C 
ATOM     20  O   UNL     1      -0.323   1.168  -0.119  0.00  0.00    -0.495 OA
ENDBRANCH  11  20
ENDBRANCH   7  15
ENDBRANCH   1   9
BRANCH   5  21
ATOM     21  C   UNL     1       4.811   3.341  -0.378  0.00  0.00    +0.138 C 
BRANCH  21  22
ATOM     22  N   UNL     1       5.837   4.034  -1.138  0.00  0.00    -0.324 N 
ATOM     23  H   UNL     1       5.640   4.953  -1.496  0.00  0.00    +0.148 HD
BRANCH  22  24
ATOM     24  C   UNL     1       7.142   3.567  -1.076  0.00  0.00    +0.130 A 
ATOM     25  N   UNL     1       7.303   2.232  -1.096  0.00  0.00    -0.220 NA
ATOM     26  C   UNL     1       8.488   1.762  -0.712  0.00  0.00    +0.223 A 
ATOM     27  N   UNL     1       9.490   2.494  -0.224  0.00  0.00    -0.235 NA
ATOM     28  C   UNL     1       9.349   3.833  -0.240  0.00  0.00    +0.088 A 
ATOM     29  C   UNL     1      10.331   4.678   0.288  0.00  0.00    +0.063 A 
ATOM     30  C   UNL     1      10.266   6.075   0.204  0.00  0.00    +0.015 A 
ATOM     31  C   UNL     1       9.155   6.671  -0.368  0.00  0.00    +0.002 A 
ATOM     32  C   UNL     1       8.110   5.864  -0.808  0.00  0.00    +0.013 A 
ATOM     33  C   UNL     1       8.191   4.445  -0.743  0.00  0.00    +0.041 A 
BRANCH  29  34
ATOM     34  C   UNL     1      11.445   4.124   1.085  0.00  0.00    +0.244 C 
ATOM     35  N   UNL     1      11.070   3.555   2.277  0.00  0.00    -0.325 N 
ATOM     36  O   UNL     1      12.603   4.271   0.761  0.00  0.00    -0.270 OA
ATOM     37  H   UNL     1      11.796   3.196   2.881  0.00  0.00    +0.145 HD
ATOM     38  H   UNL     1      10.106   3.459   2.558  0.00  0.00    +0.145 HD
ENDBRANCH  29  34
ENDBRANCH  22  24
ENDBRANCH  21  22
ENDBRANCH   5  21
TORSDOF 7
