
 OpenBabel10152419033D

 37 40  0  0  1  0  0  0  0  0999 V2000
    7.1510  -10.1710    7.6130 C   0  0  2  0  0  3  0  0  0  0  0  0
    8.0780   -9.1630    8.3020 C   0  0  0  0  0  1  0  0  0  0  0  0
    4.7540  -10.9470   10.5090 C   0  0  0  0  0  0  0  0  0  0  0  0
    3.5260  -10.9650    9.8410 C   0  0  0  0  0  3  0  0  0  0  0  0
    3.4480  -10.6200    8.4940 C   0  0  0  0  0  3  0  0  0  0  0  0
    4.6110  -10.3290    7.7850 C   0  0  0  0  0  3  0  0  0  0  0  0
    5.8660  -10.3760    8.4150 C   0  0  0  0  0  0  0  0  0  0  0  0
    5.9210  -10.6390    9.8010 C   0  0  0  0  0  3  0  0  0  0  0  0
    5.7530  -11.4750   12.7680 C   0  0  0  0  0  0  0  0  0  0  0  0
    5.6290  -12.2820   13.6920 O   0  0  0  0  0  0  0  0  0  0  0  0
    4.7500  -11.3630   11.8490 N   0  0  0  0  0  0  0  0  0  0  0  0
    3.8770  -11.7390   12.1970 H   0  0  0  0  0  0  0  0  0  0  0  0
   10.7810   -8.8010   12.3530 C   0  0  0  0  0  1  0  0  0  0  0  0
    9.2790   -8.7820   12.6410 C   0  0  0  0  0  0  0  0  0  0  0  0
    8.9620   -9.6140   13.9040 C   0  0  0  0  0  3  0  0  0  0  0  0
    7.6560  -10.3600   13.8890 C   0  0  0  0  0  3  0  0  0  0  0  0
    6.9030  -10.5050   12.7810 C   0  0  0  0  0  0  0  0  0  0  0  0
    7.3800   -9.9640   11.5200 C   0  0  0  0  0  3  0  0  0  0  0  0
    8.4670   -9.1850   11.4390 C   0  0  0  0  0  0  0  0  0  0  0  0
    8.8350   -8.7290   10.2200 F   0  0  0  0  0  0  0  0  0  0  0  0
    7.8470  -11.4400    7.4680 N   0  0  0  0  0  0  0  0  0  0  0  0
    8.3660  -11.6460    6.6300 H   0  0  0  0  0  0  0  0  0  0  0  0
    7.7040  -12.3970    8.4570 C   0  0  0  0  0  0  0  0  0  0  0  0
    6.5590  -13.0960    8.4560 N   0  0  0  0  0  0  0  0  0  0  0  0
    6.3390  -13.8840    9.5030 C   0  0  0  0  0  3  0  0  0  0  0  0
    7.0980  -13.9580   10.5980 N   0  0  0  0  0  0  0  0  0  0  0  0
    8.2540  -13.2690   10.5960 C   0  0  0  0  0  0  0  0  0  0  0  0
    9.1010  -13.2540   11.7090 C   0  0  0  0  0  0  0  0  0  0  0  0
   10.3610  -12.6400   11.7060 C   0  0  0  0  0  3  0  0  0  0  0  0
   10.7830  -11.9600   10.5770 C   0  0  0  0  0  3  0  0  0  0  0  0
    9.9220  -11.8660    9.4870 C   0  0  0  0  0  3  0  0  0  0  0  0
    8.6540  -12.5100    9.4870 C   0  0  0  0  0  0  0  0  0  0  0  0
    8.6380  -13.7890   13.0000 C   0  0  0  0  0  0  0  0  0  0  0  0
    7.2810  -13.9160   13.1160 N   0  0  0  0  0  0  0  0  0  0  0  0
    9.4040  -13.9920   13.9300 O   0  0  0  0  0  0  0  0  0  0  0  0
    6.9020  -14.2400   13.9950 H   0  0  0  0  0  0  0  0  0  0  0  0
    6.6470  -13.7030   12.3580 H   0  0  0  0  0  0  0  0  0  0  0  0
  1  2  1  1  0  0  0
  1  7  1  0  0  0  0
  3 11  1  0  0  0  0
  4  3  1  0  0  0  0
  5  4  2  0  0  0  0
  6  7  2  0  0  0  0
  6  5  1  0  0  0  0
  7  8  1  0  0  0  0
  8  3  2  0  0  0  0
  9 17  1  0  0  0  0
  9 10  2  0  0  0  0
 11 12  1  0  0  0  0
 11  9  1  0  0  0  0
 13 14  1  0  0  0  0
 14 15  1  0  0  0  0
 16 15  2  0  0  0  0
 17 16  1  0  0  0  0
 18 17  2  0  0  0  0
 19 18  1  0  0  0  0
 19 14  2  0  0  0  0
 20 19  1  0  0  0  0
 21  1  1  0  0  0  0
 21 23  1  0  0  0  0
 22 21  1  0  0  0  0
 23 32  1  0  0  0  0
 24 23  2  0  0  0  0
 24 25  1  0  0  0  0
 25 26  2  0  0  0  0
 27 26  1  0  0  0  0
 27 28  1  0  0  0  0
 28 33  1  0  0  0  0
 29 28  2  0  0  0  0
 30 29  1  0  0  0  0
 31 32  1  0  0  0  0
 31 30  2  0  0  0  0
 32 27  2  0  0  0  0
 33 34  1  0  0  0  0
 33 35  2  0  0  0  0
 34 36  1  0  0  0  0
 37 34  1  0  0  0  0
M  END
>  <minimizedAffinity>
21.3519039

$$$$
