REMARK  Name = 
REMARK  8 active torsions:
REMARK  status: ('A' for Active; 'I' for Inactive)
REMARK    1  A    between atoms: C_1  and  C_2
REMARK    2  A    between atoms: C_5  and  C_6
REMARK    3  A    between atoms: N_8  and  C_9
REMARK    4  A    between atoms: C_13  and  C_14
REMARK    5  A    between atoms: C_14  and  C_15
REMARK    6  A    between atoms: C_14  and  N_16
REMARK    7  A    between atoms: N_16  and  C_17
REMARK    8  A    between atoms: C_22  and  C_23
REMARK                            x       y       z     vdW  Elec       q    Type
REMARK                         _______ _______ _______ _____ _____    ______ ____
ROOT
ATOM      1  C   UNL     1       0.276  -2.551  -6.239  0.00  0.00    +0.099 C 
ATOM      2  C   UNL     1       0.054  -3.016  -7.683  0.00  0.00    +0.033 C 
ENDROOT
BRANCH   1   7
ATOM      3  C   UNL     1       3.063   0.004  -5.577  0.00  0.00    +0.034 A 
ATOM      4  C   UNL     1       4.192  -0.729  -5.956  0.00  0.00    +0.023 A 
ATOM      5  C   UNL     1       4.078  -2.070  -6.314  0.00  0.00    +0.002 A 
ATOM      6  C   UNL     1       2.821  -2.667  -6.370  0.00  0.00    +0.005 A 
ATOM      7  C   UNL     1       1.663  -1.932  -6.066  0.00  0.00    -0.026 A 
ATOM      8  C   UNL     1       1.802  -0.601  -5.618  0.00  0.00    +0.028 A 
BRANCH   3  11
ATOM      9  C   UNL     1       2.532   2.248  -4.546  0.00  0.00    +0.248 C 
ATOM     10  O   UNL     1       2.611   3.451  -4.806  0.00  0.00    -0.270 OA
ATOM     11  N   UNL     1       3.260   1.362  -5.287  0.00  0.00    -0.282 N 
ATOM     12  H   UNL     1       4.022   1.817  -5.775  0.00  0.00    +0.155 HD
BRANCH   9  17
ATOM     13  C   UNL     1       0.366   1.548   0.690  0.00  0.00    +0.015 C 
ATOM     14  C   UNL     1       0.422   1.175  -0.792  0.00  0.00    +0.048 C 
ATOM     15  C   UNL     1       1.791   0.548  -1.139  0.00  0.00    +0.038 C 
ATOM     16  C   UNL     1       2.329   0.861  -2.508  0.00  0.00    -0.013 C 
ATOM     17  C   UNL     1       1.797   1.803  -3.311  0.00  0.00    +0.036 C 
ATOM     18  C   UNL     1       0.681   2.600  -2.832  0.00  0.00    +0.046 C 
ATOM     19  C   UNL     1       0.050   2.332  -1.681  0.00  0.00    +0.104 C 
ATOM     20  F   UNL     1      -0.979   3.131  -1.317  0.00  0.00    -0.210 F 
ENDBRANCH   9  17
ENDBRANCH   3  11
ENDBRANCH   1   7
BRANCH   1  21
ATOM     21  N   UNL     1       0.129  -3.686  -5.342  0.00  0.00    -0.322 N 
ATOM     22  H   UNL     1       0.080  -4.623  -5.706  0.00  0.00    +0.148 HD
BRANCH  21  23
ATOM     23  C   UNL     1      -0.040  -3.450  -3.989  0.00  0.00    +0.130 A 
ATOM     24  N   UNL     1      -0.729  -2.349  -3.652  0.00  0.00    -0.220 NA
ATOM     25  C   UNL     1      -0.739  -2.021  -2.365  0.00  0.00    +0.223 A 
ATOM     26  N   UNL     1      -0.041  -2.622  -1.400  0.00  0.00    -0.235 NA
ATOM     27  C   UNL     1       0.640  -3.735  -1.732  0.00  0.00    +0.088 A 
ATOM     28  C   UNL     1       1.430  -4.417  -0.800  0.00  0.00    +0.063 A 
ATOM     29  C   UNL     1       2.064  -5.636  -1.078  0.00  0.00    +0.015 A 
ATOM     30  C   UNL     1       1.964  -6.180  -2.347  0.00  0.00    +0.002 A 
ATOM     31  C   UNL     1       1.272  -5.476  -3.329  0.00  0.00    +0.013 A 
ATOM     32  C   UNL     1       0.612  -4.251  -3.035  0.00  0.00    +0.041 A 
BRANCH  28  33
ATOM     33  C   UNL     1       1.737  -3.803   0.502  0.00  0.00    +0.244 C 
ATOM     34  N   UNL     1       2.638  -2.775   0.454  0.00  0.00    -0.325 N 
ATOM     35  O   UNL     1       1.305  -4.257   1.551  0.00  0.00    -0.270 OA
ATOM     36  H   UNL     1       2.918  -2.341   1.323  0.00  0.00    +0.145 HD
ATOM     37  H   UNL     1       3.028  -2.432  -0.413  0.00  0.00    +0.145 HD
ENDBRANCH  28  33
ENDBRANCH  21  23
ENDBRANCH   1  21
TORSDOF 6
