
 OpenBabel10152418173D

 37 40  0  0  1  0  0  0  0  0999 V2000
   -1.0430   -6.0300  -24.0640 C   0  0  2  0  0  3  0  0  0  0  0  0
    0.2310   -5.2960  -23.6330 C   0  0  0  0  0  1  0  0  0  0  0  0
   -1.6520   -9.7740  -23.4820 C   0  0  0  0  0  0  0  0  0  0  0  0
   -1.6390   -9.8450  -22.0880 C   0  0  0  0  0  3  0  0  0  0  0  0
   -1.3080   -8.7200  -21.3320 C   0  0  0  0  0  3  0  0  0  0  0  0
   -1.0720   -7.4980  -21.9630 C   0  0  0  0  0  3  0  0  0  0  0  0
   -1.1570   -7.3850  -23.3590 C   0  0  0  0  0  0  0  0  0  0  0  0
   -1.3920   -8.5540  -24.1160 C   0  0  0  0  0  3  0  0  0  0  0  0
   -1.4780  -11.5270  -25.2640 C   0  0  0  0  0  0  0  0  0  0  0  0
   -2.1530  -12.0250  -26.1600 O   0  0  0  0  0  0  0  0  0  0  0  0
   -2.0750  -10.9150  -24.1870 N   0  0  0  0  0  0  0  0  0  0  0  0
   -3.0150  -11.2430  -23.9990 H   0  0  0  0  0  0  0  0  0  0  0  0
    2.7300  -11.8610  -25.1220 C   0  0  0  0  0  0  0  0  0  0  0  0
    2.1020  -12.0390  -26.3490 C   0  0  0  0  0  3  0  0  0  0  0  0
    0.7080  -12.0060  -26.4030 C   0  0  0  0  0  3  0  0  0  0  0  0
   -0.0200  -11.7770  -25.2350 C   0  0  0  0  0  0  0  0  0  0  0  0
    0.6890  -11.5800  -24.0620 C   0  0  0  0  0  3  0  0  0  0  0  0
    2.0430  -11.6400  -23.9790 N   0  0  0  0  0  0  0  0  0  0  0  0
    4.8320  -11.6640  -26.1650 C   0  0  0  0  0  1  0  0  0  0  0  0
    4.0860  -11.8110  -24.9620 O   0  0  0  0  0  0  0  0  0  0  0  0
   -1.0440   -6.1850  -25.5140 N   0  0  0  0  0  0  0  0  0  0  0  0
   -1.9170   -6.2850  -26.0020 H   0  0  0  0  0  0  0  0  0  0  0  0
    0.0870   -5.7230  -26.1810 C   0  0  0  0  0  0  0  0  0  0  0  0
   -0.0560   -4.5810  -26.8730 N   0  0  0  0  0  0  0  0  0  0  0  0
    0.8390   -4.3410  -27.8250 C   0  0  0  0  0  3  0  0  0  0  0  0
    1.8010   -5.1840  -28.2040 N   0  0  0  0  0  0  0  0  0  0  0  0
    1.9730   -6.3000  -27.4730 C   0  0  0  0  0  0  0  0  0  0  0  0
    2.8960   -7.2810  -27.8450 C   0  0  0  0  0  0  0  0  0  0  0  0
    3.1900   -8.4030  -27.0570 C   0  0  0  0  0  3  0  0  0  0  0  0
    2.5040   -8.5950  -25.8700 C   0  0  0  0  0  3  0  0  0  0  0  0
    1.4790   -7.7120  -25.5400 C   0  0  0  0  0  3  0  0  0  0  0  0
    1.1890   -6.5780  -26.3510 C   0  0  0  0  0  0  0  0  0  0  0  0
    3.3990   -7.2830  -29.2270 C   0  0  0  0  0  0  0  0  0  0  0  0
    4.5500   -6.5550  -29.3920 N   0  0  0  0  0  0  0  0  0  0  0  0
    2.8260   -7.8400  -30.1490 O   0  0  0  0  0  0  0  0  0  0  0  0
    4.9520   -6.4850  -30.3160 H   0  0  0  0  0  0  0  0  0  0  0  0
    5.0260   -6.1130  -28.6160 H   0  0  0  0  0  0  0  0  0  0  0  0
  1  2  1  1  0  0  0
  1  7  1  0  0  0  0
  3  4  1  0  0  0  0
  4  5  2  0  0  0  0
  6  5  1  0  0  0  0
  7  6  2  0  0  0  0
  8  3  2  0  0  0  0
  8  7  1  0  0  0  0
  9 16  1  0  0  0  0
  9 11  1  0  0  0  0
 10  9  2  0  0  0  0
 11 12  1  0  0  0  0
 11  3  1  0  0  0  0
 13 20  1  0  0  0  0
 13 18  2  0  0  0  0
 14 13  1  0  0  0  0
 15 14  2  0  0  0  0
 15 16  1  0  0  0  0
 16 17  2  0  0  0  0
 17 18  1  0  0  0  0
 19 20  1  0  0  0  0
 21  1  1  0  0  0  0
 22 21  1  0  0  0  0
 23 21  1  0  0  0  0
 24 23  2  0  0  0  0
 25 24  1  0  0  0  0
 26 25  2  0  0  0  0
 26 27  1  0  0  0  0
 27 32  1  0  0  0  0
 28 27  2  0  0  0  0
 28 29  1  0  0  0  0
 29 30  2  0  0  0  0
 30 31  1  0  0  0  0
 32 23  1  0  0  0  0
 32 31  2  0  0  0  0
 33 28  1  0  0  0  0
 34 33  1  0  0  0  0
 34 37  1  0  0  0  0
 35 33  2  0  0  0  0
 36 34  1  0  0  0  0
M  END
>  <minimizedAffinity>
-6.66660452

$$$$
