
 OpenBabel10152418173D

 37 40  0  0  1  0  0  0  0  0999 V2000
    3.3090   -9.6910  -25.9660 C   0  0  2  0  0  3  0  0  0  0  0  0
    3.9860   -9.9340  -27.3180 C   0  0  0  0  0  1  0  0  0  0  0  0
    0.2400  -11.4810  -24.5120 C   0  0  0  0  0  0  0  0  0  0  0  0
   -0.3260  -12.0380  -25.6590 C   0  0  0  0  0  3  0  0  0  0  0  0
    0.1980  -11.7390  -26.9160 C   0  0  0  0  0  3  0  0  0  0  0  0
    1.3420  -10.9480  -27.0270 C   0  0  0  0  0  3  0  0  0  0  0  0
    1.9750  -10.4410  -25.8820 C   0  0  0  0  0  0  0  0  0  0  0  0
    1.3740  -10.6680  -24.6240 C   0  0  0  0  0  3  0  0  0  0  0  0
   -0.7070  -11.1010  -22.2230 C   0  0  0  0  0  0  0  0  0  0  0  0
   -0.5140  -11.4420  -21.0590 O   0  0  0  0  0  0  0  0  0  0  0  0
   -0.2770  -11.8840  -23.2680 N   0  0  0  0  0  0  0  0  0  0  0  0
   -0.1760  -12.8640  -23.0300 H   0  0  0  0  0  0  0  0  0  0  0  0
   -3.5380   -8.0460  -22.9220 C   0  0  0  0  0  0  0  0  0  0  0  0
   -2.8880   -8.5980  -24.0190 C   0  0  0  0  0  3  0  0  0  0  0  0
   -1.8960   -9.5560  -23.8040 C   0  0  0  0  0  3  0  0  0  0  0  0
   -1.5940   -9.9510  -22.5000 C   0  0  0  0  0  0  0  0  0  0  0  0
   -2.3130   -9.3710  -21.4690 C   0  0  0  0  0  3  0  0  0  0  0  0
   -3.2590   -8.4140  -21.6510 N   0  0  0  0  0  0  0  0  0  0  0  0
   -5.8420   -7.7200  -23.2830 C   0  0  0  0  0  1  0  0  0  0  0  0
   -4.5650   -7.1500  -23.0170 O   0  0  0  0  0  0  0  0  0  0  0  0
    3.1240   -8.2580  -25.7690 N   0  0  0  0  0  0  0  0  0  0  0  0
    3.8500   -7.7190  -25.3310 H   0  0  0  0  0  0  0  0  0  0  0  0
    2.1910   -7.6400  -26.5980 C   0  0  0  0  0  0  0  0  0  0  0  0
    2.5140   -7.5570  -27.8990 N   0  0  0  0  0  0  0  0  0  0  0  0
    1.8730   -6.6420  -28.6170 C   0  0  0  0  0  3  0  0  0  0  0  0
    1.0140   -5.7470  -28.1300 N   0  0  0  0  0  0  0  0  0  0  0  0
    0.6530   -5.8690  -26.8400 C   0  0  0  0  0  0  0  0  0  0  0  0
   -0.1730   -4.9290  -26.2200 C   0  0  0  0  0  0  0  0  0  0  0  0
   -0.6660   -5.0730  -24.9150 C   0  0  0  0  0  3  0  0  0  0  0  0
   -0.2830   -6.1730  -24.1650 C   0  0  0  0  0  3  0  0  0  0  0  0
    0.6510   -7.0550  -24.7020 C   0  0  0  0  0  3  0  0  0  0  0  0
    1.1450   -6.8950  -26.0280 C   0  0  0  0  0  0  0  0  0  0  0  0
   -0.3350   -3.6110  -26.8550 C   0  0  0  0  0  0  0  0  0  0  0  0
    0.7110   -3.2630  -27.6700 N   0  0  0  0  0  0  0  0  0  0  0  0
   -1.2870   -2.8780  -26.6430 O   0  0  0  0  0  0  0  0  0  0  0  0
    0.6910   -2.3630  -28.1280 H   0  0  0  0  0  0  0  0  0  0  0  0
    1.4860   -3.8890  -27.8510 H   0  0  0  0  0  0  0  0  0  0  0  0
  1  2  1  6  0  0  0
  1  7  1  0  0  0  0
  1 21  1  0  0  0  0
  3 11  1  0  0  0  0
  4  3  2  0  0  0  0
  5  4  1  0  0  0  0
  6  5  2  0  0  0  0
  6  7  1  0  0  0  0
  7  8  2  0  0  0  0
  8  3  1  0  0  0  0
  9 10  2  0  0  0  0
 11 12  1  0  0  0  0
 11  9  1  0  0  0  0
 13 18  2  0  0  0  0
 14 15  2  0  0  0  0
 14 13  1  0  0  0  0
 15 16  1  0  0  0  0
 16  9  1  0  0  0  0
 16 17  2  0  0  0  0
 18 17  1  0  0  0  0
 19 20  1  0  0  0  0
 20 13  1  0  0  0  0
 21 22  1  0  0  0  0
 23 32  1  0  0  0  0
 23 21  1  0  0  0  0
 24 23  2  0  0  0  0
 25 26  2  0  0  0  0
 25 24  1  0  0  0  0
 26 27  1  0  0  0  0
 27 28  2  0  0  0  0
 27 32  1  0  0  0  0
 28 29  1  0  0  0  0
 29 30  2  0  0  0  0
 31 30  1  0  0  0  0
 32 31  2  0  0  0  0
 33 35  2  0  0  0  0
 33 28  1  0  0  0  0
 34 33  1  0  0  0  0
 36 34  1  0  0  0  0
 37 34  1  0  0  0  0
M  END
>  <minimizedAffinity>
-7.19565153

$$$$
