
 OpenBabel10152418173D

 37 40  0  0  1  0  0  0  0  0999 V2000
   -0.7820   -5.7880  -25.8460 C   0  0  2  0  0  3  0  0  0  0  0  0
   -2.1870   -6.0930  -26.3730 C   0  0  0  0  0  1  0  0  0  0  0  0
    1.8900   -5.9080  -28.5990 C   0  0  0  0  0  0  0  0  0  0  0  0
    2.0500   -4.5530  -28.8900 C   0  0  0  0  0  3  0  0  0  0  0  0
    1.2150   -3.6050  -28.2990 C   0  0  0  0  0  3  0  0  0  0  0  0
    0.2700   -3.9990  -27.3510 C   0  0  0  0  0  3  0  0  0  0  0  0
    0.1440   -5.3480  -26.9840 C   0  0  0  0  0  0  0  0  0  0  0  0
    0.9270   -6.3070  -27.6650 C   0  0  0  0  0  3  0  0  0  0  0  0
    3.7640   -7.5700  -28.5180 C   0  0  0  0  0  0  0  0  0  0  0  0
    4.8590   -7.7760  -29.0330 O   0  0  0  0  0  0  0  0  0  0  0  0
    2.8150   -6.8080  -29.1570 N   0  0  0  0  0  0  0  0  0  0  0  0
    2.9210   -6.7830  -30.1650 H   0  0  0  0  0  0  0  0  0  0  0  0
    2.3250   -9.7430  -25.1950 C   0  0  0  0  0  0  0  0  0  0  0  0
    2.6450   -8.4040  -25.0100 C   0  0  0  0  0  3  0  0  0  0  0  0
    3.1910   -7.6880  -26.0760 C   0  0  0  0  0  3  0  0  0  0  0  0
    3.3850   -8.3240  -27.3040 C   0  0  0  0  0  0  0  0  0  0  0  0
    3.0090   -9.6530  -27.4060 C   0  0  0  0  0  3  0  0  0  0  0  0
    2.5060  -10.3780  -26.3750 N   0  0  0  0  0  0  0  0  0  0  0  0
    2.1910  -11.8670  -24.1860 C   0  0  0  0  0  1  0  0  0  0  0  0
    1.7280  -10.5220  -24.2430 O   0  0  0  0  0  0  0  0  0  0  0  0
   -0.2570   -6.9630  -25.1600 N   0  0  0  0  0  0  0  0  0  0  0  0
    0.7320   -7.1400  -25.1640 H   0  0  0  0  0  0  0  0  0  0  0  0
   -1.0660   -7.5040  -24.1640 C   0  0  0  0  0  0  0  0  0  0  0  0
   -1.3040   -6.7190  -23.1000 N   0  0  0  0  0  0  0  0  0  0  0  0
   -1.7020   -7.3250  -21.9870 C   0  0  0  0  0  3  0  0  0  0  0  0
   -1.7910   -8.6450  -21.8210 N   0  0  0  0  0  0  0  0  0  0  0  0
   -1.6050   -9.4220  -22.9030 C   0  0  0  0  0  0  0  0  0  0  0  0
   -1.5940  -10.8150  -22.8070 C   0  0  0  0  0  0  0  0  0  0  0  0
   -1.5160  -11.6660  -23.9200 C   0  0  0  0  0  3  0  0  0  0  0  0
   -1.3930  -11.1150  -25.1850 C   0  0  0  0  0  3  0  0  0  0  0  0
   -1.2590   -9.7340  -25.3030 C   0  0  0  0  0  3  0  0  0  0  0  0
   -1.3370   -8.8830  -24.1640 C   0  0  0  0  0  0  0  0  0  0  0  0
   -1.3980  -11.4260  -21.4830 C   0  0  0  0  0  0  0  0  0  0  0  0
   -2.4380  -11.2030  -20.6180 N   0  0  0  0  0  0  0  0  0  0  0  0
   -0.3890  -12.0360  -21.1690 O   0  0  0  0  0  0  0  0  0  0  0  0
   -2.3750  -11.5690  -19.6780 H   0  0  0  0  0  0  0  0  0  0  0  0
   -3.2770  -10.7110  -20.8970 H   0  0  0  0  0  0  0  0  0  0  0  0
  1  2  1  6  0  0  0
  1 21  1  0  0  0  0
  3  8  1  0  0  0  0
  4  3  2  0  0  0  0
  4  5  1  0  0  0  0
  5  6  2  0  0  0  0
  6  7  1  0  0  0  0
  7  1  1  0  0  0  0
  8  7  2  0  0  0  0
  9 16  1  0  0  0  0
 10  9  2  0  0  0  0
 11  3  1  0  0  0  0
 11  9  1  0  0  0  0
 12 11  1  0  0  0  0
 13 14  1  0  0  0  0
 13 20  1  0  0  0  0
 15 14  2  0  0  0  0
 16 15  1  0  0  0  0
 17 16  2  0  0  0  0
 17 18  1  0  0  0  0
 18 13  2  0  0  0  0
 20 19  1  0  0  0  0
 21 23  1  0  0  0  0
 22 21  1  0  0  0  0
 23 24  1  0  0  0  0
 24 25  2  0  0  0  0
 25 26  1  0  0  0  0
 27 28  1  0  0  0  0
 27 26  2  0  0  0  0
 28 33  1  0  0  0  0
 29 28  2  0  0  0  0
 30 29  1  0  0  0  0
 31 30  2  0  0  0  0
 31 32  1  0  0  0  0
 32 23  2  0  0  0  0
 32 27  1  0  0  0  0
 33 35  2  0  0  0  0
 33 34  1  0  0  0  0
 34 36  1  0  0  0  0
 37 34  1  0  0  0  0
M  END
>  <minimizedAffinity>
-7.48434544

$$$$
