REMARK  Name = 
REMARK  9 active torsions:
REMARK  status: ('A' for Active; 'I' for Inactive)
REMARK    1  A    between atoms: C_1  and  O_2
REMARK    2  A    between atoms: O_2  and  C_3
REMARK    3  A    between atoms: C_6  and  C_7
REMARK    4  A    between atoms: N_9  and  C_10
REMARK    5  A    between atoms: C_14  and  C_15
REMARK    6  A    between atoms: C_15  and  C_16
REMARK    7  A    between atoms: C_15  and  N_17
REMARK    8  A    between atoms: N_17  and  C_18
REMARK    9  A    between atoms: C_23  and  C_24
REMARK                            x       y       z     vdW  Elec       q    Type
REMARK                         _______ _______ _______ _____ _____    ______ ____
ROOT
ATOM      1  C   UNL     1       6.149  -2.257   3.550  0.00  0.00    +0.099 C 
ATOM      2  C   UNL     1       7.411  -2.636   4.330  0.00  0.00    +0.033 C 
ENDROOT
BRANCH   1   7
ATOM      3  C   UNL     1       4.672  -4.900   1.191  0.00  0.00    +0.034 A 
ATOM      4  C   UNL     1       5.704  -5.053   0.264  0.00  0.00    +0.023 A 
ATOM      5  C   UNL     1       6.822  -4.221   0.316  0.00  0.00    +0.002 A 
ATOM      6  C   UNL     1       6.953  -3.288   1.345  0.00  0.00    +0.005 A 
ATOM      7  C   UNL     1       5.964  -3.170   2.334  0.00  0.00    -0.026 A 
ATOM      8  C   UNL     1       4.792  -3.948   2.210  0.00  0.00    +0.028 A 
BRANCH   3  11
ATOM      9  C   UNL     1       2.339  -5.692   1.648  0.00  0.00    +0.250 C 
ATOM     10  O   UNL     1       1.753  -6.655   2.134  0.00  0.00    -0.270 OA
ATOM     11  N   UNL     1       3.611  -5.821   1.142  0.00  0.00    -0.281 N 
ATOM     12  H   UNL     1       3.840  -6.763   0.847  0.00  0.00    +0.155 HD
BRANCH   9  16
ATOM     13  C   UNL     1      -0.109  -2.329   0.918  0.00  0.00    +0.214 A 
ATOM     14  C   UNL     1       0.830  -2.674  -0.046  0.00  0.00    +0.068 A 
ATOM     15  C   UNL     1       1.698  -3.737   0.209  0.00  0.00    +0.020 A 
ATOM     16  C   UNL     1       1.592  -4.438   1.411  0.00  0.00    +0.055 A 
ATOM     17  C   UNL     1       0.607  -4.044   2.301  0.00  0.00    +0.127 A 
ATOM     18  N   UNL     1      -0.227  -2.994   2.089  0.00  0.00    -0.221 NA
BRANCH  13  20
ATOM     19  C   UNL     1      -0.605  -0.206   0.028  0.00  0.00    +0.279 C 
ATOM     20  O   UNL     1      -1.048  -1.350   0.750  0.00  0.00    -0.480 OA
ENDBRANCH  13  20
ENDBRANCH   9  16
ENDBRANCH   3  11
ENDBRANCH   1   7
BRANCH   1  21
ATOM     21  N   UNL     1       6.229  -0.856   3.153  0.00  0.00    -0.322 N 
ATOM     22  H   UNL     1       7.128  -0.431   3.008  0.00  0.00    +0.148 HD
BRANCH  21  23
ATOM     23  C   UNL     1       5.093  -0.324   2.548  0.00  0.00    +0.130 A 
ATOM     24  N   UNL     1       3.913  -0.681   3.081  0.00  0.00    -0.220 NA
ATOM     25  C   UNL     1       2.841  -0.542   2.309  0.00  0.00    +0.223 A 
ATOM     26  N   UNL     1       2.860  -0.169   1.029  0.00  0.00    -0.235 NA
ATOM     27  C   UNL     1       4.035   0.239   0.517  0.00  0.00    +0.088 A 
ATOM     28  C   UNL     1       4.169   0.565  -0.834  0.00  0.00    +0.063 A 
ATOM     29  C   UNL     1       5.341   1.101  -1.388  0.00  0.00    +0.015 A 
ATOM     30  C   UNL     1       6.452   1.276  -0.580  0.00  0.00    +0.002 A 
ATOM     31  C   UNL     1       6.397   0.830   0.738  0.00  0.00    +0.013 A 
ATOM     32  C   UNL     1       5.201   0.285   1.286  0.00  0.00    +0.041 A 
BRANCH  28  33
ATOM     33  C   UNL     1       3.138   0.098  -1.774  0.00  0.00    +0.244 C 
ATOM     34  N   UNL     1       3.391  -1.147  -2.290  0.00  0.00    -0.325 N 
ATOM     35  O   UNL     1       2.173   0.770  -2.099  0.00  0.00    -0.270 OA
ATOM     36  H   UNL     1       2.744  -1.535  -2.962  0.00  0.00    +0.145 HD
ATOM     37  H   UNL     1       4.186  -1.702  -1.998  0.00  0.00    +0.145 HD
ENDBRANCH  28  33
ENDBRANCH  21  23
ENDBRANCH   1  21
TORSDOF 7
