REMARK  Name = 
REMARK  6 active torsions:
REMARK  status: ('A' for Active; 'I' for Inactive)
REMARK    1  A    between atoms: C_2  and  C_4
REMARK    2  A    between atoms: N_10  and  C_11
REMARK    3  A    between atoms: C_11  and  C_12
REMARK    4  A    between atoms: C_16  and  N_17
REMARK    5  A    between atoms: C_18  and  C_20
REMARK    6  A    between atoms: C_23  and  C_24
REMARK                            x       y       z     vdW  Elec       q    Type
REMARK                         _______ _______ _______ _____ _____    ______ ____
ROOT
ATOM      1  C   UNL     1       1.725   8.948   1.707  0.00  0.00    -0.029 A 
ATOM      2  C   UNL     1       2.070   8.106   2.771  0.00  0.00    +0.005 A 
ATOM      3  C   UNL     1       2.768   8.603   3.869  0.00  0.00    +0.002 A 
ATOM      4  C   UNL     1       3.123   9.952   3.928  0.00  0.00    +0.023 A 
ATOM      5  C   UNL     1       2.802  10.813   2.879  0.00  0.00    +0.034 A 
ATOM      6  C   UNL     1       2.088  10.305   1.783  0.00  0.00    +0.028 A 
ENDROOT
BRANCH   5   7
ATOM      7  N   UNL     1       3.074  12.195   2.874  0.00  0.00    -0.281 N 
ATOM      8  C   UNL     1       3.867  12.986   3.673  0.00  0.00    +0.250 C 
ATOM      9  O   UNL     1       3.708  14.205   3.685  0.00  0.00    -0.270 OA
ATOM     10  H   UNL     1       2.545  12.753   2.212  0.00  0.00    +0.155 HD
BRANCH   8  11
ATOM     11  C   UNL     1       4.975  12.427   4.456  0.00  0.00    +0.055 A 
ATOM     12  C   UNL     1       5.950  11.612   3.883  0.00  0.00    +0.016 A 
ATOM     13  C   UNL     1       6.986  11.129   4.682  0.00  0.00    +0.033 A 
ATOM     14  C   UNL     1       7.027  11.475   6.037  0.00  0.00    +0.144 A 
ATOM     15  N   UNL     1       6.090  12.301   6.593  0.00  0.00    -0.250 NA
ATOM     16  C   UNL     1       5.101  12.771   5.791  0.00  0.00    +0.124 A 
BRANCH  14  17
ATOM     17  C   UNL     1       8.153  10.942   6.918  0.00  0.00    +0.434 C 
ATOM     18  F   UNL     1       9.073  11.895   7.240  0.00  0.00    -0.164 F 
ATOM     19  F   UNL     1       7.715  10.419   8.099  0.00  0.00    -0.164 F 
ATOM     20  F   UNL     1       8.865   9.937   6.322  0.00  0.00    -0.164 F 
ENDBRANCH  14  17
ENDBRANCH   8  11
ENDBRANCH   5   7
BRANCH   1  21
ATOM     21  C   UNL     1       0.903   8.445   0.538  0.00  0.00    +0.138 C 
BRANCH  21  28
ATOM     22  C   UNL     1       1.016   2.470  -0.763  0.00  0.00    +0.063 A 
ATOM     23  C   UNL     1       2.052   2.448  -1.709  0.00  0.00    +0.015 A 
ATOM     24  C   UNL     1       2.699   3.628  -2.038  0.00  0.00    +0.002 A 
ATOM     25  C   UNL     1       2.309   4.810  -1.415  0.00  0.00    +0.013 A 
ATOM     26  C   UNL     1       1.269   4.832  -0.446  0.00  0.00    +0.041 A 
ATOM     27  C   UNL     1       0.839   5.993   0.231  0.00  0.00    +0.130 A 
ATOM     28  N   UNL     1       1.450   7.220  -0.018  0.00  0.00    -0.324 N 
ATOM     29  N   UNL     1      -0.179   5.967   1.105  0.00  0.00    -0.220 NA
ATOM     30  C   UNL     1      -0.743   4.783   1.345  0.00  0.00    +0.223 A 
ATOM     31  N   UNL     1      -0.385   3.621   0.798  0.00  0.00    -0.235 NA
ATOM     32  C   UNL     1       0.599   3.641  -0.116  0.00  0.00    +0.088 A 
ATOM     33  H   UNL     1       2.455   7.202  -0.117  0.00  0.00    +0.148 HD
BRANCH  22  35
ATOM     34  N   UNL     1       1.094   0.248   0.150  0.00  0.00    -0.325 N 
ATOM     35  C   UNL     1       0.335   1.193  -0.482  0.00  0.00    +0.244 C 
ATOM     36  O   UNL     1      -0.811   0.971  -0.846  0.00  0.00    -0.270 OA
ATOM     37  H   UNL     1       0.656  -0.640   0.355  0.00  0.00    +0.145 HD
ATOM     38  H   UNL     1       2.035   0.417   0.477  0.00  0.00    +0.145 HD
ENDBRANCH  22  35
ENDBRANCH  21  28
ENDBRANCH   1  21
TORSDOF 6
