
 OpenBabel10152419523D

 36 39  0  0  0  0  0  0  0  0999 V2000
    2.2130   -9.5390  -26.7780 C   0  0  0  0  0  2  0  0  0  0  0  0
   -0.4780   -4.1830  -25.5490 C   0  0  0  0  0  0  0  0  0  0  0  0
   -0.6620   -4.3170  -24.1650 C   0  0  0  0  0  3  0  0  0  0  0  0
   -0.2630   -5.4830  -23.5350 C   0  0  0  0  0  3  0  0  0  0  0  0
    0.3250   -6.4930  -24.2930 C   0  0  0  0  0  3  0  0  0  0  0  0
    0.5290   -6.3520  -25.6950 C   0  0  0  0  0  0  0  0  0  0  0  0
    1.1510   -7.3230  -26.5080 C   0  0  0  0  0  0  0  0  0  0  0  0
    1.6440   -8.4940  -25.9470 N   0  0  0  0  0  0  0  0  0  0  0  0
    1.2700   -7.1640  -27.8360 N   0  0  0  0  0  0  0  0  0  0  0  0
    0.8260   -6.0160  -28.3490 C   0  0  0  0  0  3  0  0  0  0  0  0
    0.2790   -5.0100  -27.6650 N   0  0  0  0  0  0  0  0  0  0  0  0
    0.1070   -5.1790  -26.3430 C   0  0  0  0  0  0  0  0  0  0  0  0
    2.0420   -8.4110  -25.0210 H   0  0  0  0  0  0  0  0  0  0  0  0
   -0.0130   -2.2630  -26.9160 N   0  0  0  0  0  0  0  0  0  0  0  0
   -0.9440   -2.9290  -26.1670 C   0  0  0  0  0  0  0  0  0  0  0  0
   -2.0640   -2.4830  -25.9700 O   0  0  0  0  0  0  0  0  0  0  0  0
   -0.2990   -1.3970  -27.3530 H   0  0  0  0  0  0  0  0  0  0  0  0
    0.9110   -2.6260  -27.1050 H   0  0  0  0  0  0  0  0  0  0  0  0
    2.7450  -10.6250  -25.8670 C   0  0  0  0  0  0  0  0  0  0  0  0
    4.0340  -11.1360  -26.0220 C   0  0  0  0  0  3  0  0  0  0  0  0
    4.4640  -12.1880  -25.2170 C   0  0  0  0  0  3  0  0  0  0  0  0
    3.6120  -12.7430  -24.2540 C   0  0  0  0  0  3  0  0  0  0  0  0
    2.3250  -12.2390  -24.0720 C   0  0  0  0  0  0  0  0  0  0  0  0
    1.9010  -11.1870  -24.8930 C   0  0  0  0  0  3  0  0  0  0  0  0
    1.3750  -12.7330  -23.1600 N   0  0  0  0  0  0  0  0  0  0  0  0
    0.1660  -12.2710  -22.7030 C   0  0  0  0  0  0  0  0  0  0  0  0
   -0.3810  -12.8200  -21.7470 O   0  0  0  0  0  0  0  0  0  0  0  0
    1.6060  -13.6160  -22.7160 H   0  0  0  0  0  0  0  0  0  0  0  0
   -0.5300  -11.1400  -23.3210 C   0  0  0  0  0  0  0  0  0  0  0  0
   -0.7730  -10.0160  -22.5170 C   0  0  0  0  0  3  0  0  0  0  0  0
   -1.4610   -8.9220  -23.0430 C   0  0  0  0  0  3  0  0  0  0  0  0
   -1.9190   -8.9640  -24.3600 C   0  0  0  0  0  0  0  0  0  0  0  0
   -2.7650   -7.6130  -25.0070 Cl  0  0  0  0  0  0  0  0  0  0  0  0
   -1.7070  -10.0910  -25.1540 C   0  0  0  0  0  3  0  0  0  0  0  0
   -1.0190  -11.1900  -24.6320 C   0  0  0  0  0  0  0  0  0  0  0  0
   -0.8250  -12.5760  -25.6420 Cl  0  0  0  0  0  0  0  0  0  0  0  0
  1  8  1  0  0  0  0
  1 19  1  0  0  0  0
  2  3  1  0  0  0  0
  3  4  2  0  0  0  0
  5  4  1  0  0  0  0
  6  5  2  0  0  0  0
  7  8  1  0  0  0  0
  7  6  1  0  0  0  0
  8 13  1  0  0  0  0
  9  7  2  0  0  0  0
 10  9  1  0  0  0  0
 10 11  2  0  0  0  0
 11 12  1  0  0  0  0
 12  6  1  0  0  0  0
 12  2  2  0  0  0  0
 14 15  1  0  0  0  0
 15 16  2  0  0  0  0
 15  2  1  0  0  0  0
 17 14  1  0  0  0  0
 18 14  1  0  0  0  0
 19 24  1  0  0  0  0
 20 19  2  0  0  0  0
 20 21  1  0  0  0  0
 21 22  2  0  0  0  0
 22 23  1  0  0  0  0
 23 25  1  0  0  0  0
 24 23  2  0  0  0  0
 25 28  1  0  0  0  0
 25 26  1  0  0  0  0
 26 27  2  0  0  0  0
 29 26  1  0  0  0  0
 29 30  1  0  0  0  0
 31 30  2  0  0  0  0
 32 31  1  0  0  0  0
 33 32  1  0  0  0  0
 34 35  1  0  0  0  0
 34 32  2  0  0  0  0
 35 29  2  0  0  0  0
 36 35  1  0  0  0  0
M  END
>  <minimizedAffinity>
-7.21143055

$$$$
