
 OpenBabel10152419523D

 36 39  0  0  0  0  0  0  0  0999 V2000
   -0.7710  -10.9970  -25.8850 C   0  0  0  0  0  2  0  0  0  0  0  0
   -0.4400   -4.8980  -26.2400 C   0  0  0  0  0  0  0  0  0  0  0  0
    0.3010   -4.7650  -27.4240 C   0  0  0  0  0  3  0  0  0  0  0  0
    0.7260   -5.9000  -28.0910 C   0  0  0  0  0  3  0  0  0  0  0  0
    0.3950   -7.1500  -27.5760 C   0  0  0  0  0  3  0  0  0  0  0  0
   -0.3720   -7.2880  -26.3850 C   0  0  0  0  0  0  0  0  0  0  0  0
   -0.7680   -8.5250  -25.8340 C   0  0  0  0  0  0  0  0  0  0  0  0
   -0.4430   -9.7130  -26.4770 N   0  0  0  0  0  0  0  0  0  0  0  0
   -1.4450   -8.6010  -24.6770 N   0  0  0  0  0  0  0  0  0  0  0  0
   -1.7800   -7.4490  -24.0960 C   0  0  0  0  0  3  0  0  0  0  0  0
   -1.5100   -6.2280  -24.5610 N   0  0  0  0  0  0  0  0  0  0  0  0
   -0.7880   -6.1390  -25.6910 C   0  0  0  0  0  0  0  0  0  0  0  0
   -0.4480   -9.6880  -27.4880 H   0  0  0  0  0  0  0  0  0  0  0  0
   -1.0960   -2.5910  -26.3840 N   0  0  0  0  0  0  0  0  0  0  0  0
   -0.8440   -3.6540  -25.5610 C   0  0  0  0  0  0  0  0  0  0  0  0
   -0.8880   -3.5610  -24.3430 O   0  0  0  0  0  0  0  0  0  0  0  0
   -1.3720   -1.7200  -25.9510 H   0  0  0  0  0  0  0  0  0  0  0  0
   -1.0820   -2.6550  -27.3920 H   0  0  0  0  0  0  0  0  0  0  0  0
    0.5190  -11.6550  -25.4460 C   0  0  0  0  0  0  0  0  0  0  0  0
    0.8400  -11.7940  -24.0950 C   0  0  0  0  0  3  0  0  0  0  0  0
    2.0710  -12.3350  -23.7280 C   0  0  0  0  0  3  0  0  0  0  0  0
    2.9930  -12.7360  -24.7020 C   0  0  0  0  0  3  0  0  0  0  0  0
    2.6880  -12.6180  -26.0580 C   0  0  0  0  0  0  0  0  0  0  0  0
    1.4510  -12.0660  -26.4150 C   0  0  0  0  0  3  0  0  0  0  0  0
    3.5430  -12.9590  -27.1210 N   0  0  0  0  0  0  0  0  0  0  0  0
    4.1710  -12.2380  -28.1040 C   0  0  0  0  0  0  0  0  0  0  0  0
    4.7220  -12.8200  -29.0390 O   0  0  0  0  0  0  0  0  0  0  0  0
    3.7550  -13.9470  -27.2190 H   0  0  0  0  0  0  0  0  0  0  0  0
    4.2340  -10.7740  -28.0900 C   0  0  0  0  0  0  0  0  0  0  0  0
    4.5300  -10.1550  -26.8660 C   0  0  0  0  0  3  0  0  0  0  0  0
    4.5710   -8.7620  -26.7850 C   0  0  0  0  0  3  0  0  0  0  0  0
    4.2950   -7.9970  -27.9180 C   0  0  0  0  0  0  0  0  0  0  0  0
    4.3480   -6.2800  -27.8160 Cl  0  0  0  0  0  0  0  0  0  0  0  0
    3.9690   -8.6070  -29.1300 C   0  0  0  0  0  3  0  0  0  0  0  0
    3.9270  -10.0010  -29.2170 C   0  0  0  0  0  0  0  0  0  0  0  0
    3.4730  -10.7030  -30.7270 Cl  0  0  0  0  0  0  0  0  0  0  0  0
  1 19  1  0  0  0  0
  2 12  1  0  0  0  0
  2 15  1  0  0  0  0
  3  2  2  0  0  0  0
  4  5  2  0  0  0  0
  4  3  1  0  0  0  0
  5  6  1  0  0  0  0
  6  7  2  0  0  0  0
  6 12  1  0  0  0  0
  7  9  1  0  0  0  0
  8  1  1  0  0  0  0
  8  7  1  0  0  0  0
  9 10  2  0  0  0  0
 11 10  1  0  0  0  0
 12 11  2  0  0  0  0
 13  8  1  0  0  0  0
 14 17  1  0  0  0  0
 14 15  1  0  0  0  0
 15 16  2  0  0  0  0
 18 14  1  0  0  0  0
 19 20  1  0  0  0  0
 20 21  2  0  0  0  0
 22 21  1  0  0  0  0
 23 22  2  0  0  0  0
 24 23  1  0  0  0  0
 24 19  2  0  0  0  0
 25 23  1  0  0  0  0
 26 29  1  0  0  0  0
 26 25  1  0  0  0  0
 27 26  2  0  0  0  0
 28 25  1  0  0  0  0
 29 30  1  0  0  0  0
 30 31  2  0  0  0  0
 32 33  1  0  0  0  0
 32 31  1  0  0  0  0
 34 32  2  0  0  0  0
 35 34  1  0  0  0  0
 35 29  2  0  0  0  0
 36 35  1  0  0  0  0
M  END
>  <minimizedAffinity>
-8.11381245

$$$$
