
 OpenBabel10152419523D

 36 39  0  0  0  0  0  0  0  0999 V2000
   -0.6350   -6.5970  -23.9950 C   0  0  0  0  0  2  0  0  0  0  0  0
   -1.4750  -11.9570  -21.1680 C   0  0  0  0  0  0  0  0  0  0  0  0
   -0.7220  -12.7930  -22.0060 C   0  0  0  0  0  3  0  0  0  0  0  0
   -0.0960  -12.2560  -23.1180 C   0  0  0  0  0  3  0  0  0  0  0  0
   -0.2190  -10.8930  -23.3690 C   0  0  0  0  0  3  0  0  0  0  0  0
   -0.9680  -10.0390  -22.5100 C   0  0  0  0  0  0  0  0  0  0  0  0
   -1.1000   -8.6460  -22.6930 C   0  0  0  0  0  0  0  0  0  0  0  0
   -0.4470   -8.0140  -23.7440 N   0  0  0  0  0  0  0  0  0  0  0  0
   -1.8630   -7.8950  -21.8840 N   0  0  0  0  0  0  0  0  0  0  0  0
   -2.4490   -8.5140  -20.8590 C   0  0  0  0  0  3  0  0  0  0  0  0
   -2.3430   -9.8100  -20.5600 N   0  0  0  0  0  0  0  0  0  0  0  0
   -1.6230  -10.5820  -21.3930 C   0  0  0  0  0  0  0  0  0  0  0  0
    0.4630   -8.3810  -23.9880 H   0  0  0  0  0  0  0  0  0  0  0  0
   -3.4730  -12.8450  -20.1720 N   0  0  0  0  0  0  0  0  0  0  0  0
   -2.1380  -12.5900  -20.0140 C   0  0  0  0  0  0  0  0  0  0  0  0
   -1.5510  -12.8110  -18.9660 O   0  0  0  0  0  0  0  0  0  0  0  0
   -3.9600  -13.2760  -19.3980 H   0  0  0  0  0  0  0  0  0  0  0  0
   -3.9700  -12.6850  -21.0370 H   0  0  0  0  0  0  0  0  0  0  0  0
   -0.3830   -6.3440  -25.4660 C   0  0  0  0  0  0  0  0  0  0  0  0
   -1.4370   -6.1750  -26.3650 C   0  0  0  0  0  3  0  0  0  0  0  0
   -1.1710   -6.0200  -27.7230 C   0  0  0  0  0  3  0  0  0  0  0  0
    0.1460   -6.0380  -28.1990 C   0  0  0  0  0  3  0  0  0  0  0  0
    1.2160   -6.1920  -27.3180 C   0  0  0  0  0  0  0  0  0  0  0  0
    0.9350   -6.3550  -25.9550 C   0  0  0  0  0  3  0  0  0  0  0  0
    2.5730   -6.2540  -27.6810 N   0  0  0  0  0  0  0  0  0  0  0  0
    3.5470   -7.2120  -27.5570 C   0  0  0  0  0  0  0  0  0  0  0  0
    4.7210   -6.9310  -27.7950 O   0  0  0  0  0  0  0  0  0  0  0  0
    2.9500   -5.4230  -28.1250 H   0  0  0  0  0  0  0  0  0  0  0  0
    3.2500   -8.5910  -27.1600 C   0  0  0  0  0  0  0  0  0  0  0  0
    2.7490   -8.7950  -25.8660 C   0  0  0  0  0  3  0  0  0  0  0  0
    2.4790  -10.0900  -25.4220 C   0  0  0  0  0  3  0  0  0  0  0  0
    2.7310  -11.1740  -26.2630 C   0  0  0  0  0  0  0  0  0  0  0  0
    2.3950  -12.7700  -25.7140 Cl  0  0  0  0  0  0  0  0  0  0  0  0
    3.2580  -10.9790  -27.5400 C   0  0  0  0  0  3  0  0  0  0  0  0
    3.5300   -9.6840  -27.9890 C   0  0  0  0  0  0  0  0  0  0  0  0
    4.2260   -9.5040  -29.5580 Cl  0  0  0  0  0  0  0  0  0  0  0  0
  1  8  1  0  0  0  0
  2 15  1  0  0  0  0
  3  2  2  0  0  0  0
  4  3  1  0  0  0  0
  5  4  2  0  0  0  0
  5  6  1  0  0  0  0
  6 12  1  0  0  0  0
  7  6  2  0  0  0  0
  7  9  1  0  0  0  0
  8  7  1  0  0  0  0
  9 10  2  0  0  0  0
 10 11  1  0  0  0  0
 12  2  1  0  0  0  0
 12 11  2  0  0  0  0
 13  8  1  0  0  0  0
 14 15  1  0  0  0  0
 14 17  1  0  0  0  0
 15 16  2  0  0  0  0
 18 14  1  0  0  0  0
 19  1  1  0  0  0  0
 20 19  2  0  0  0  0
 21 20  1  0  0  0  0
 22 21  2  0  0  0  0
 22 23  1  0  0  0  0
 23 24  2  0  0  0  0
 24 19  1  0  0  0  0
 25 26  1  0  0  0  0
 25 23  1  0  0  0  0
 26 29  1  0  0  0  0
 27 26  2  0  0  0  0
 28 25  1  0  0  0  0
 29 30  1  0  0  0  0
 30 31  2  0  0  0  0
 32 33  1  0  0  0  0
 32 31  1  0  0  0  0
 34 32  2  0  0  0  0
 35 34  1  0  0  0  0
 35 29  2  0  0  0  0
 36 35  1  0  0  0  0
M  END
>  <minimizedAffinity>
-9.76447964

$$$$

 OpenBabel10152419523D

 36 39  0  0  0  0  0  0  0  0999 V2000
   -1.6680   -7.1040  -26.7510 C   0  0  0  0  0  2  0  0  0  0  0  0
   -1.7110  -10.1270  -21.4320 C   0  0  0  0  0  0  0  0  0  0  0  0
   -1.7250   -9.0450  -20.5390 C   0  0  0  0  0  3  0  0  0  0  0  0
   -1.7000   -7.7530  -21.0350 C   0  0  0  0  0  3  0  0  0  0  0  0
   -1.6750   -7.5600  -22.4140 C   0  0  0  0  0  3  0  0  0  0  0  0
   -1.6800   -8.6560  -23.3220 C   0  0  0  0  0  0  0  0  0  0  0  0
   -1.6910   -8.5240  -24.7270 C   0  0  0  0  0  0  0  0  0  0  0  0
   -1.7370   -7.2630  -25.3100 N   0  0  0  0  0  0  0  0  0  0  0  0
   -1.6390   -9.5900  -25.5400 N   0  0  0  0  0  0  0  0  0  0  0  0
   -1.6350  -10.7910  -24.9610 C   0  0  0  0  0  3  0  0  0  0  0  0
   -1.6830  -11.0310  -23.6490 N   0  0  0  0  0  0  0  0  0  0  0  0
   -1.6830   -9.9700  -22.8240 C   0  0  0  0  0  0  0  0  0  0  0  0
   -2.2840   -6.5670  -24.8220 H   0  0  0  0  0  0  0  0  0  0  0  0
   -0.5900  -12.2210  -21.0760 N   0  0  0  0  0  0  0  0  0  0  0  0
   -1.7150  -11.4780  -20.8450 C   0  0  0  0  0  0  0  0  0  0  0  0
   -2.6820  -11.9270  -20.2490 O   0  0  0  0  0  0  0  0  0  0  0  0
   -0.5590  -13.1550  -20.6890 H   0  0  0  0  0  0  0  0  0  0  0  0
    0.2260  -11.8600  -21.5500 H   0  0  0  0  0  0  0  0  0  0  0  0
   -0.5610   -6.1190  -27.0620 C   0  0  0  0  0  0  0  0  0  0  0  0
   -0.7630   -4.7420  -26.9570 C   0  0  0  0  0  3  0  0  0  0  0  0
    0.2540   -3.8640  -27.3240 C   0  0  0  0  0  3  0  0  0  0  0  0
    1.4770   -4.3480  -27.8050 C   0  0  0  0  0  3  0  0  0  0  0  0
    1.7050   -5.7200  -27.9050 C   0  0  0  0  0  0  0  0  0  0  0  0
    0.6730   -6.5940  -27.5400 C   0  0  0  0  0  3  0  0  0  0  0  0
    2.8780   -6.3200  -28.3980 N   0  0  0  0  0  0  0  0  0  0  0  0
    3.6130   -7.4170  -28.0250 C   0  0  0  0  0  0  0  0  0  0  0  0
    4.7220   -7.6130  -28.5230 O   0  0  0  0  0  0  0  0  0  0  0  0
    3.3080   -5.8610  -29.1950 H   0  0  0  0  0  0  0  0  0  0  0  0
    3.1250   -8.4000  -27.0540 C   0  0  0  0  0  0  0  0  0  0  0  0
    2.6060   -7.9090  -25.8470 C   0  0  0  0  0  3  0  0  0  0  0  0
    2.1570   -8.7990  -24.8710 C   0  0  0  0  0  3  0  0  0  0  0  0
    2.2480  -10.1730  -25.0970 C   0  0  0  0  0  0  0  0  0  0  0  0
    1.6920  -11.2690  -23.8930 Cl  0  0  0  0  0  0  0  0  0  0  0  0
    2.7920  -10.6670  -26.2820 C   0  0  0  0  0  3  0  0  0  0  0  0
    3.2430   -9.7790  -27.2630 C   0  0  0  0  0  0  0  0  0  0  0  0
    3.9500  -10.4440  -28.6900 Cl  0  0  0  0  0  0  0  0  0  0  0  0
  1  8  1  0  0  0  0
  2 15  1  0  0  0  0
  2  3  1  0  0  0  0
  4  3  2  0  0  0  0
  5  4  1  0  0  0  0
  6 12  1  0  0  0  0
  6  5  2  0  0  0  0
  7  6  1  0  0  0  0
  8 13  1  0  0  0  0
  8  7  1  0  0  0  0
  9 10  1  0  0  0  0
  9  7  2  0  0  0  0
 10 11  2  0  0  0  0
 11 12  1  0  0  0  0
 12  2  2  0  0  0  0
 14 15  1  0  0  0  0
 14 17  1  0  0  0  0
 15 16  2  0  0  0  0
 18 14  1  0  0  0  0
 19 20  1  0  0  0  0
 19  1  1  0  0  0  0
 21 20  2  0  0  0  0
 22 21  1  0  0  0  0
 23 22  2  0  0  0  0
 23 24  1  0  0  0  0
 24 19  2  0  0  0  0
 25 26  1  0  0  0  0
 25 23  1  0  0  0  0
 26 29  1  0  0  0  0
 27 26  2  0  0  0  0
 28 25  1  0  0  0  0
 29 30  1  0  0  0  0
 30 31  2  0  0  0  0
 32 31  1  0  0  0  0
 32 33  1  0  0  0  0
 34 32  2  0  0  0  0
 35 29  2  0  0  0  0
 35 34  1  0  0  0  0
 36 35  1  0  0  0  0
M  END
>  <minimizedAffinity>
-9.07551575

$$$$

 OpenBabel10152419523D

 36 39  0  0  0  0  0  0  0  0999 V2000
   -1.6560   -6.3690  -26.4050 C   0  0  0  0  0  2  0  0  0  0  0  0
   -0.7750  -11.7390  -23.6090 C   0  0  0  0  0  0  0  0  0  0  0  0
   -0.3180  -12.5030  -24.6930 C   0  0  0  0  0  3  0  0  0  0  0  0
   -0.2270  -11.9220  -25.9450 C   0  0  0  0  0  3  0  0  0  0  0  0
   -0.5810  -10.5840  -26.0960 C   0  0  0  0  0  3  0  0  0  0  0  0
   -1.0280   -9.8010  -24.9940 C   0  0  0  0  0  0  0  0  0  0  0  0
   -1.3660   -8.4330  -25.0770 C   0  0  0  0  0  0  0  0  0  0  0  0
   -1.2370   -7.7530  -26.2810 N   0  0  0  0  0  0  0  0  0  0  0  0
   -1.8350   -7.7540  -24.0180 N   0  0  0  0  0  0  0  0  0  0  0  0
   -1.9140   -8.4150  -22.8630 C   0  0  0  0  0  3  0  0  0  0  0  0
   -1.5650   -9.6860  -22.6610 N   0  0  0  0  0  0  0  0  0  0  0  0
   -1.1430  -10.3910  -23.7240 C   0  0  0  0  0  0  0  0  0  0  0  0
   -0.4580   -8.0240  -26.8650 H   0  0  0  0  0  0  0  0  0  0  0  0
   -2.1080  -12.3840  -21.7170 N   0  0  0  0  0  0  0  0  0  0  0  0
   -0.8740  -12.4190  -22.3050 C   0  0  0  0  0  0  0  0  0  0  0  0
    0.0960  -12.9210  -21.7580 O   0  0  0  0  0  0  0  0  0  0  0  0
   -2.2110  -12.8380  -20.8200 H   0  0  0  0  0  0  0  0  0  0  0  0
   -2.9240  -11.9880  -22.1630 H   0  0  0  0  0  0  0  0  0  0  0  0
   -0.4910   -5.5740  -26.9560 C   0  0  0  0  0  0  0  0  0  0  0  0
   -0.4310   -4.1860  -26.8230 C   0  0  0  0  0  3  0  0  0  0  0  0
    0.6170   -3.4790  -27.4090 C   0  0  0  0  0  3  0  0  0  0  0  0
    1.6100   -4.1470  -28.1370 C   0  0  0  0  0  3  0  0  0  0  0  0
    1.5770   -5.5340  -28.2710 C   0  0  0  0  0  0  0  0  0  0  0  0
    0.5150   -6.2340  -27.6840 C   0  0  0  0  0  3  0  0  0  0  0  0
    2.4990   -6.3070  -28.9990 N   0  0  0  0  0  0  0  0  0  0  0  0
    3.2400   -7.4260  -28.7100 C   0  0  0  0  0  0  0  0  0  0  0  0
    4.1260   -7.7930  -29.4800 O   0  0  0  0  0  0  0  0  0  0  0  0
    2.6920   -5.9920  -29.9440 H   0  0  0  0  0  0  0  0  0  0  0  0
    3.0120   -8.2330  -27.5080 C   0  0  0  0  0  0  0  0  0  0  0  0
    2.5570   -7.5650  -26.3610 C   0  0  0  0  0  3  0  0  0  0  0  0
    2.3540   -8.2770  -25.1780 C   0  0  0  0  0  3  0  0  0  0  0  0
    2.6250   -9.6450  -25.1410 C   0  0  0  0  0  0  0  0  0  0  0  0
    2.3720  -10.5210  -23.6820 Cl  0  0  0  0  0  0  0  0  0  0  0  0
    3.1070  -10.3080  -26.2700 C   0  0  0  0  0  3  0  0  0  0  0  0
    3.3120   -9.5990  -27.4580 C   0  0  0  0  0  0  0  0  0  0  0  0
    3.9540  -10.4580  -28.8100 Cl  0  0  0  0  0  0  0  0  0  0  0  0
  1  8  1  0  0  0  0
  2 15  1  0  0  0  0
  3  2  2  0  0  0  0
  4  3  1  0  0  0  0
  5  4  2  0  0  0  0
  5  6  1  0  0  0  0
  6 12  1  0  0  0  0
  7  6  2  0  0  0  0
  7  9  1  0  0  0  0
  8  7  1  0  0  0  0
  9 10  2  0  0  0  0
 10 11  1  0  0  0  0
 12  2  1  0  0  0  0
 12 11  2  0  0  0  0
 13  8  1  0  0  0  0
 14 17  1  0  0  0  0
 15 16  2  0  0  0  0
 15 14  1  0  0  0  0
 18 14  1  0  0  0  0
 19 20  1  0  0  0  0
 19  1  1  0  0  0  0
 21 20  2  0  0  0  0
 22 21  1  0  0  0  0
 23 22  2  0  0  0  0
 23 24  1  0  0  0  0
 24 19  2  0  0  0  0
 25 26  1  0  0  0  0
 25 23  1  0  0  0  0
 26 29  1  0  0  0  0
 27 26  2  0  0  0  0
 28 25  1  0  0  0  0
 29 35  2  0  0  0  0
 29 30  1  0  0  0  0
 30 31  2  0  0  0  0
 31 32  1  0  0  0  0
 32 33  1  0  0  0  0
 34 32  2  0  0  0  0
 35 34  1  0  0  0  0
 36 35  1  0  0  0  0
M  END
>  <minimizedAffinity>
-8.74290562

$$$$

 OpenBabel10152419523D

 36 39  0  0  0  0  0  0  0  0999 V2000
    0.6190  -12.4150  -26.3420 C   0  0  0  0  0  2  0  0  0  0  0  0
   -2.2160   -9.3850  -21.8460 C   0  0  0  0  0  0  0  0  0  0  0  0
   -1.9730  -10.2590  -20.7750 C   0  0  0  0  0  3  0  0  0  0  0  0
   -1.2730  -11.4310  -20.9990 C   0  0  0  0  0  3  0  0  0  0  0  0
   -0.8150  -11.7090  -22.2850 C   0  0  0  0  0  3  0  0  0  0  0  0
   -1.0450  -10.8150  -23.3690 C   0  0  0  0  0  0  0  0  0  0  0  0
   -0.5750  -11.0240  -24.6830 C   0  0  0  0  0  0  0  0  0  0  0  0
    0.1950  -12.1410  -24.9810 N   0  0  0  0  0  0  0  0  0  0  0  0
   -0.8670  -10.1760  -25.6820 N   0  0  0  0  0  0  0  0  0  0  0  0
   -1.5730   -9.0910  -25.3670 C   0  0  0  0  0  3  0  0  0  0  0  0
   -2.0140   -8.7670  -24.1500 N   0  0  0  0  0  0  0  0  0  0  0  0
   -1.7730   -9.6340  -23.1510 C   0  0  0  0  0  0  0  0  0  0  0  0
    0.8320  -12.4480  -24.2590 H   0  0  0  0  0  0  0  0  0  0  0  0
   -2.2420   -7.0390  -21.3290 N   0  0  0  0  0  0  0  0  0  0  0  0
   -2.9870   -8.1650  -21.5510 C   0  0  0  0  0  0  0  0  0  0  0  0
   -4.2040   -8.1720  -21.4460 O   0  0  0  0  0  0  0  0  0  0  0  0
   -2.7390   -6.1840  -21.1200 H   0  0  0  0  0  0  0  0  0  0  0  0
   -1.2370   -7.0110  -21.4280 H   0  0  0  0  0  0  0  0  0  0  0  0
    2.0720  -12.0130  -26.4710 C   0  0  0  0  0  0  0  0  0  0  0  0
    3.0720  -12.6580  -25.7420 C   0  0  0  0  0  3  0  0  0  0  0  0
    4.3890  -12.2120  -25.8270 C   0  0  0  0  0  3  0  0  0  0  0  0
    4.7200  -11.1160  -26.6340 C   0  0  0  0  0  3  0  0  0  0  0  0
    3.7400  -10.4640  -27.3810 C   0  0  0  0  0  0  0  0  0  0  0  0
    2.4180  -10.9170  -27.2810 C   0  0  0  0  0  3  0  0  0  0  0  0
    3.9490   -9.3400  -28.2000 N   0  0  0  0  0  0  0  0  0  0  0  0
    3.4060   -8.0810  -28.2420 C   0  0  0  0  0  0  0  0  0  0  0  0
    3.6390   -7.3420  -29.1980 O   0  0  0  0  0  0  0  0  0  0  0  0
    4.6370   -9.4530  -28.9380 H   0  0  0  0  0  0  0  0  0  0  0  0
    2.5540   -7.5540  -27.1720 C   0  0  0  0  0  0  0  0  0  0  0  0
    2.6420   -8.1720  -25.9160 C   0  0  0  0  0  3  0  0  0  0  0  0
    1.8310   -7.7340  -24.8690 C   0  0  0  0  0  3  0  0  0  0  0  0
    0.9230   -6.6970  -25.0870 C   0  0  0  0  0  0  0  0  0  0  0  0
   -0.0750   -6.1570  -23.7930 Cl  0  0  0  0  0  0  0  0  0  0  0  0
    0.8090   -6.1010  -26.3420 C   0  0  0  0  0  3  0  0  0  0  0  0
    1.6190   -6.5360  -27.3950 C   0  0  0  0  0  0  0  0  0  0  0  0
    1.4040   -5.7950  -28.9390 Cl  0  0  0  0  0  0  0  0  0  0  0  0
  1  8  1  0  0  0  0
  2 15  1  0  0  0  0
  2  3  1  0  0  0  0
  4  3  2  0  0  0  0
  5  4  1  0  0  0  0
  6 12  1  0  0  0  0
  6  5  2  0  0  0  0
  7  6  1  0  0  0  0
  8  7  1  0  0  0  0
  8 13  1  0  0  0  0
  9 10  1  0  0  0  0
  9  7  2  0  0  0  0
 10 11  2  0  0  0  0
 11 12  1  0  0  0  0
 12  2  2  0  0  0  0
 14 17  1  0  0  0  0
 15 16  2  0  0  0  0
 15 14  1  0  0  0  0
 18 14  1  0  0  0  0
 19  1  1  0  0  0  0
 19 20  1  0  0  0  0
 21 20  2  0  0  0  0
 22 21  1  0  0  0  0
 23 24  1  0  0  0  0
 23 22  2  0  0  0  0
 24 19  2  0  0  0  0
 25 23  1  0  0  0  0
 26 25  1  0  0  0  0
 26 29  1  0  0  0  0
 27 26  2  0  0  0  0
 28 25  1  0  0  0  0
 29 30  1  0  0  0  0
 30 31  2  0  0  0  0
 32 31  1  0  0  0  0
 32 33  1  0  0  0  0
 34 32  2  0  0  0  0
 35 29  2  0  0  0  0
 35 34  1  0  0  0  0
 36 35  1  0  0  0  0
M  END
>  <minimizedAffinity>
-8.73573494

$$$$

 OpenBabel10152419523D

 36 39  0  0  0  0  0  0  0  0999 V2000
   -0.7710  -10.9970  -25.8850 C   0  0  0  0  0  2  0  0  0  0  0  0
   -0.4400   -4.8980  -26.2400 C   0  0  0  0  0  0  0  0  0  0  0  0
    0.3010   -4.7650  -27.4240 C   0  0  0  0  0  3  0  0  0  0  0  0
    0.7260   -5.9000  -28.0910 C   0  0  0  0  0  3  0  0  0  0  0  0
    0.3950   -7.1500  -27.5760 C   0  0  0  0  0  3  0  0  0  0  0  0
   -0.3720   -7.2880  -26.3850 C   0  0  0  0  0  0  0  0  0  0  0  0
   -0.7680   -8.5250  -25.8340 C   0  0  0  0  0  0  0  0  0  0  0  0
   -0.4430   -9.7130  -26.4770 N   0  0  0  0  0  0  0  0  0  0  0  0
   -1.4450   -8.6010  -24.6770 N   0  0  0  0  0  0  0  0  0  0  0  0
   -1.7800   -7.4490  -24.0960 C   0  0  0  0  0  3  0  0  0  0  0  0
   -1.5100   -6.2280  -24.5610 N   0  0  0  0  0  0  0  0  0  0  0  0
   -0.7880   -6.1390  -25.6910 C   0  0  0  0  0  0  0  0  0  0  0  0
   -0.4480   -9.6880  -27.4880 H   0  0  0  0  0  0  0  0  0  0  0  0
   -1.0960   -2.5910  -26.3840 N   0  0  0  0  0  0  0  0  0  0  0  0
   -0.8440   -3.6540  -25.5610 C   0  0  0  0  0  0  0  0  0  0  0  0
   -0.8880   -3.5610  -24.3430 O   0  0  0  0  0  0  0  0  0  0  0  0
   -1.3720   -1.7200  -25.9510 H   0  0  0  0  0  0  0  0  0  0  0  0
   -1.0820   -2.6550  -27.3920 H   0  0  0  0  0  0  0  0  0  0  0  0
    0.5190  -11.6550  -25.4460 C   0  0  0  0  0  0  0  0  0  0  0  0
    0.8400  -11.7940  -24.0950 C   0  0  0  0  0  3  0  0  0  0  0  0
    2.0710  -12.3350  -23.7280 C   0  0  0  0  0  3  0  0  0  0  0  0
    2.9930  -12.7360  -24.7020 C   0  0  0  0  0  3  0  0  0  0  0  0
    2.6880  -12.6180  -26.0580 C   0  0  0  0  0  0  0  0  0  0  0  0
    1.4510  -12.0660  -26.4150 C   0  0  0  0  0  3  0  0  0  0  0  0
    3.5430  -12.9590  -27.1210 N   0  0  0  0  0  0  0  0  0  0  0  0
    4.1710  -12.2380  -28.1040 C   0  0  0  0  0  0  0  0  0  0  0  0
    4.7220  -12.8200  -29.0390 O   0  0  0  0  0  0  0  0  0  0  0  0
    3.7550  -13.9470  -27.2190 H   0  0  0  0  0  0  0  0  0  0  0  0
    4.2340  -10.7740  -28.0900 C   0  0  0  0  0  0  0  0  0  0  0  0
    4.5300  -10.1550  -26.8660 C   0  0  0  0  0  3  0  0  0  0  0  0
    4.5710   -8.7620  -26.7850 C   0  0  0  0  0  3  0  0  0  0  0  0
    4.2950   -7.9970  -27.9180 C   0  0  0  0  0  0  0  0  0  0  0  0
    4.3480   -6.2800  -27.8160 Cl  0  0  0  0  0  0  0  0  0  0  0  0
    3.9690   -8.6070  -29.1300 C   0  0  0  0  0  3  0  0  0  0  0  0
    3.9270  -10.0010  -29.2170 C   0  0  0  0  0  0  0  0  0  0  0  0
    3.4730  -10.7030  -30.7270 Cl  0  0  0  0  0  0  0  0  0  0  0  0
  1 19  1  0  0  0  0
  2 12  1  0  0  0  0
  2 15  1  0  0  0  0
  3  2  2  0  0  0  0
  4  5  2  0  0  0  0
  4  3  1  0  0  0  0
  5  6  1  0  0  0  0
  6  7  2  0  0  0  0
  6 12  1  0  0  0  0
  7  9  1  0  0  0  0
  8  1  1  0  0  0  0
  8  7  1  0  0  0  0
  9 10  2  0  0  0  0
 11 10  1  0  0  0  0
 12 11  2  0  0  0  0
 13  8  1  0  0  0  0
 14 17  1  0  0  0  0
 14 15  1  0  0  0  0
 15 16  2  0  0  0  0
 18 14  1  0  0  0  0
 19 20  1  0  0  0  0
 20 21  2  0  0  0  0
 22 21  1  0  0  0  0
 23 22  2  0  0  0  0
 24 23  1  0  0  0  0
 24 19  2  0  0  0  0
 25 23  1  0  0  0  0
 26 29  1  0  0  0  0
 26 25  1  0  0  0  0
 27 26  2  0  0  0  0
 28 25  1  0  0  0  0
 29 30  1  0  0  0  0
 30 31  2  0  0  0  0
 32 33  1  0  0  0  0
 32 31  1  0  0  0  0
 34 32  2  0  0  0  0
 35 34  1  0  0  0  0
 35 29  2  0  0  0  0
 36 35  1  0  0  0  0
M  END
>  <minimizedAffinity>
-8.11381245

$$$$

 OpenBabel10152419523D

 36 39  0  0  0  0  0  0  0  0999 V2000
    2.8020  -11.5560  -23.8760 C   0  0  0  0  0  2  0  0  0  0  0  0
    4.0900   -9.3430  -29.4320 C   0  0  0  0  0  0  0  0  0  0  0  0
    4.6200  -10.4940  -30.0340 C   0  0  0  0  0  3  0  0  0  0  0  0
    4.7220  -11.6610  -29.2980 C   0  0  0  0  0  3  0  0  0  0  0  0
    4.2820  -11.6670  -27.9770 C   0  0  0  0  0  3  0  0  0  0  0  0
    3.7270  -10.5050  -27.3700 C   0  0  0  0  0  0  0  0  0  0  0  0
    3.2320  -10.4580  -26.0490 C   0  0  0  0  0  0  0  0  0  0  0  0
    3.2320  -11.6030  -25.2620 N   0  0  0  0  0  0  0  0  0  0  0  0
    2.7690   -9.3210  -25.5060 N   0  0  0  0  0  0  0  0  0  0  0  0
    2.7420   -8.2440  -26.2900 C   0  0  0  0  0  3  0  0  0  0  0  0
    3.1270   -8.1920  -27.5660 N   0  0  0  0  0  0  0  0  0  0  0  0
    3.6410   -9.3110  -28.1060 C   0  0  0  0  0  0  0  0  0  0  0  0
    3.0520  -12.4740  -25.7420 H   0  0  0  0  0  0  0  0  0  0  0  0
    4.6680   -7.0310  -29.7410 N   0  0  0  0  0  0  0  0  0  0  0  0
    4.0290   -8.1240  -30.2590 C   0  0  0  0  0  0  0  0  0  0  0  0
    3.3970   -8.0770  -31.3030 O   0  0  0  0  0  0  0  0  0  0  0  0
    4.6430   -6.1770  -30.2800 H   0  0  0  0  0  0  0  0  0  0  0  0
    5.2100   -7.0580  -28.8880 H   0  0  0  0  0  0  0  0  0  0  0  0
    1.2900  -11.6210  -23.8510 C   0  0  0  0  0  0  0  0  0  0  0  0
    0.5950  -12.6200  -24.5340 C   0  0  0  0  0  3  0  0  0  0  0  0
   -0.7980  -12.6050  -24.5530 C   0  0  0  0  0  3  0  0  0  0  0  0
   -1.5100  -11.5920  -23.8970 C   0  0  0  0  0  3  0  0  0  0  0  0
   -0.8360  -10.5920  -23.1980 C   0  0  0  0  0  0  0  0  0  0  0  0
    0.5650  -10.6130  -23.1930 C   0  0  0  0  0  3  0  0  0  0  0  0
   -1.4410   -9.5130  -22.5290 N   0  0  0  0  0  0  0  0  0  0  0  0
   -1.5520   -8.1710  -22.7960 C   0  0  0  0  0  0  0  0  0  0  0  0
   -1.9800   -7.4050  -21.9330 O   0  0  0  0  0  0  0  0  0  0  0  0
   -1.8940   -9.7360  -21.6490 H   0  0  0  0  0  0  0  0  0  0  0  0
   -1.1930   -7.5930  -24.0940 C   0  0  0  0  0  0  0  0  0  0  0  0
   -1.3700   -8.3990  -25.2280 C   0  0  0  0  0  3  0  0  0  0  0  0
   -1.0140   -7.9130  -26.4870 C   0  0  0  0  0  3  0  0  0  0  0  0
   -0.4650   -6.6360  -26.6040 C   0  0  0  0  0  0  0  0  0  0  0  0
   -0.0280   -6.0390  -28.1570 Cl  0  0  0  0  0  0  0  0  0  0  0  0
   -0.2570   -5.8430  -25.4750 C   0  0  0  0  0  3  0  0  0  0  0  0
   -0.6120   -6.3240  -24.2120 C   0  0  0  0  0  0  0  0  0  0  0  0
   -0.2910   -5.3210  -22.8450 Cl  0  0  0  0  0  0  0  0  0  0  0  0
  1 19  1  0  0  0  0
  2 12  1  0  0  0  0
  3  2  2  0  0  0  0
  3  4  1  0  0  0  0
  4  5  2  0  0  0  0
  5  6  1  0  0  0  0
  6  7  1  0  0  0  0
  7  9  2  0  0  0  0
  7  8  1  0  0  0  0
  8  1  1  0  0  0  0
 10  9  1  0  0  0  0
 11 10  2  0  0  0  0
 12 11  1  0  0  0  0
 12  6  2  0  0  0  0
 13  8  1  0  0  0  0
 14 18  1  0  0  0  0
 15 14  1  0  0  0  0
 15  2  1  0  0  0  0
 16 15  2  0  0  0  0
 17 14  1  0  0  0  0
 19 24  1  0  0  0  0
 20 19  2  0  0  0  0
 21 20  1  0  0  0  0
 21 22  2  0  0  0  0
 22 23  1  0  0  0  0
 23 24  2  0  0  0  0
 23 25  1  0  0  0  0
 25 28  1  0  0  0  0
 26 25  1  0  0  0  0
 26 27  2  0  0  0  0
 29 26  1  0  0  0  0
 30 29  2  0  0  0  0
 31 30  1  0  0  0  0
 32 31  2  0  0  0  0
 32 34  1  0  0  0  0
 33 32  1  0  0  0  0
 34 35  2  0  0  0  0
 35 29  1  0  0  0  0
 35 36  1  0  0  0  0
M  END
>  <minimizedAffinity>
-7.70913696

$$$$

 OpenBabel10152419523D

 36 39  0  0  0  0  0  0  0  0999 V2000
    2.2130   -9.5390  -26.7780 C   0  0  0  0  0  2  0  0  0  0  0  0
   -0.4780   -4.1830  -25.5490 C   0  0  0  0  0  0  0  0  0  0  0  0
   -0.6620   -4.3170  -24.1650 C   0  0  0  0  0  3  0  0  0  0  0  0
   -0.2630   -5.4830  -23.5350 C   0  0  0  0  0  3  0  0  0  0  0  0
    0.3250   -6.4930  -24.2930 C   0  0  0  0  0  3  0  0  0  0  0  0
    0.5290   -6.3520  -25.6950 C   0  0  0  0  0  0  0  0  0  0  0  0
    1.1510   -7.3230  -26.5080 C   0  0  0  0  0  0  0  0  0  0  0  0
    1.6440   -8.4940  -25.9470 N   0  0  0  0  0  0  0  0  0  0  0  0
    1.2700   -7.1640  -27.8360 N   0  0  0  0  0  0  0  0  0  0  0  0
    0.8260   -6.0160  -28.3490 C   0  0  0  0  0  3  0  0  0  0  0  0
    0.2790   -5.0100  -27.6650 N   0  0  0  0  0  0  0  0  0  0  0  0
    0.1070   -5.1790  -26.3430 C   0  0  0  0  0  0  0  0  0  0  0  0
    2.0420   -8.4110  -25.0210 H   0  0  0  0  0  0  0  0  0  0  0  0
   -0.0130   -2.2630  -26.9160 N   0  0  0  0  0  0  0  0  0  0  0  0
   -0.9440   -2.9290  -26.1670 C   0  0  0  0  0  0  0  0  0  0  0  0
   -2.0640   -2.4830  -25.9700 O   0  0  0  0  0  0  0  0  0  0  0  0
   -0.2990   -1.3970  -27.3530 H   0  0  0  0  0  0  0  0  0  0  0  0
    0.9110   -2.6260  -27.1050 H   0  0  0  0  0  0  0  0  0  0  0  0
    2.7450  -10.6250  -25.8670 C   0  0  0  0  0  0  0  0  0  0  0  0
    4.0340  -11.1360  -26.0220 C   0  0  0  0  0  3  0  0  0  0  0  0
    4.4640  -12.1880  -25.2170 C   0  0  0  0  0  3  0  0  0  0  0  0
    3.6120  -12.7430  -24.2540 C   0  0  0  0  0  3  0  0  0  0  0  0
    2.3250  -12.2390  -24.0720 C   0  0  0  0  0  0  0  0  0  0  0  0
    1.9010  -11.1870  -24.8930 C   0  0  0  0  0  3  0  0  0  0  0  0
    1.3750  -12.7330  -23.1600 N   0  0  0  0  0  0  0  0  0  0  0  0
    0.1660  -12.2710  -22.7030 C   0  0  0  0  0  0  0  0  0  0  0  0
   -0.3810  -12.8200  -21.7470 O   0  0  0  0  0  0  0  0  0  0  0  0
    1.6060  -13.6160  -22.7160 H   0  0  0  0  0  0  0  0  0  0  0  0
   -0.5300  -11.1400  -23.3210 C   0  0  0  0  0  0  0  0  0  0  0  0
   -0.7730  -10.0160  -22.5170 C   0  0  0  0  0  3  0  0  0  0  0  0
   -1.4610   -8.9220  -23.0430 C   0  0  0  0  0  3  0  0  0  0  0  0
   -1.9190   -8.9640  -24.3600 C   0  0  0  0  0  0  0  0  0  0  0  0
   -2.7650   -7.6130  -25.0070 Cl  0  0  0  0  0  0  0  0  0  0  0  0
   -1.7070  -10.0910  -25.1540 C   0  0  0  0  0  3  0  0  0  0  0  0
   -1.0190  -11.1900  -24.6320 C   0  0  0  0  0  0  0  0  0  0  0  0
   -0.8250  -12.5760  -25.6420 Cl  0  0  0  0  0  0  0  0  0  0  0  0
  1  8  1  0  0  0  0
  1 19  1  0  0  0  0
  2  3  1  0  0  0  0
  3  4  2  0  0  0  0
  5  4  1  0  0  0  0
  6  5  2  0  0  0  0
  7  8  1  0  0  0  0
  7  6  1  0  0  0  0
  8 13  1  0  0  0  0
  9  7  2  0  0  0  0
 10  9  1  0  0  0  0
 10 11  2  0  0  0  0
 11 12  1  0  0  0  0
 12  6  1  0  0  0  0
 12  2  2  0  0  0  0
 14 15  1  0  0  0  0
 15 16  2  0  0  0  0
 15  2  1  0  0  0  0
 17 14  1  0  0  0  0
 18 14  1  0  0  0  0
 19 24  1  0  0  0  0
 20 19  2  0  0  0  0
 20 21  1  0  0  0  0
 21 22  2  0  0  0  0
 22 23  1  0  0  0  0
 23 25  1  0  0  0  0
 24 23  2  0  0  0  0
 25 28  1  0  0  0  0
 25 26  1  0  0  0  0
 26 27  2  0  0  0  0
 29 26  1  0  0  0  0
 29 30  1  0  0  0  0
 31 30  2  0  0  0  0
 32 31  1  0  0  0  0
 33 32  1  0  0  0  0
 34 35  1  0  0  0  0
 34 32  2  0  0  0  0
 35 29  2  0  0  0  0
 36 35  1  0  0  0  0
M  END
>  <minimizedAffinity>
-7.21143055

$$$$

 OpenBabel10152419523D

 36 39  0  0  0  0  0  0  0  0999 V2000
    3.7770   -9.7330  -26.0580 C   0  0  0  0  0  2  0  0  0  0  0  0
    0.1450   -4.9090  -27.0410 C   0  0  0  0  0  0  0  0  0  0  0  0
    0.5570   -4.5560  -28.3350 C   0  0  0  0  0  3  0  0  0  0  0  0
    1.5620   -5.2820  -28.9510 C   0  0  0  0  0  3  0  0  0  0  0  0
    2.1320   -6.3550  -28.2720 C   0  0  0  0  0  3  0  0  0  0  0  0
    1.7030   -6.7260  -26.9660 C   0  0  0  0  0  0  0  0  0  0  0  0
    2.2160   -7.8240  -26.2440 C   0  0  0  0  0  0  0  0  0  0  0  0
    3.1790   -8.6480  -26.8140 N   0  0  0  0  0  0  0  0  0  0  0  0
    1.8170   -8.0980  -24.9920 N   0  0  0  0  0  0  0  0  0  0  0  0
    0.8650   -7.3190  -24.4780 C   0  0  0  0  0  3  0  0  0  0  0  0
    0.2700   -6.2970  -25.0940 N   0  0  0  0  0  0  0  0  0  0  0  0
    0.6980   -5.9800  -26.3280 C   0  0  0  0  0  0  0  0  0  0  0  0
    3.0950   -8.8080  -27.8090 H   0  0  0  0  0  0  0  0  0  0  0  0
   -0.5920   -3.5220  -25.2230 N   0  0  0  0  0  0  0  0  0  0  0  0
   -0.9120   -4.0850  -26.4280 C   0  0  0  0  0  0  0  0  0  0  0  0
   -2.0190   -3.9660  -26.9310 O   0  0  0  0  0  0  0  0  0  0  0  0
   -1.2960   -2.9530  -24.7720 H   0  0  0  0  0  0  0  0  0  0  0  0
    0.3230   -3.5950  -24.8020 H   0  0  0  0  0  0  0  0  0  0  0  0
    2.8170  -10.9030  -26.0770 C   0  0  0  0  0  0  0  0  0  0  0  0
    2.4290  -11.5050  -27.2750 C   0  0  0  0  0  3  0  0  0  0  0  0
    1.4860  -12.5300  -27.2610 C   0  0  0  0  0  3  0  0  0  0  0  0
    0.9160  -12.9590  -26.0560 C   0  0  0  0  0  3  0  0  0  0  0  0
    1.2990  -12.3820  -24.8460 C   0  0  0  0  0  0  0  0  0  0  0  0
    2.2430  -11.3470  -24.8730 C   0  0  0  0  0  3  0  0  0  0  0  0
    0.7770  -12.7100  -23.5820 N   0  0  0  0  0  0  0  0  0  0  0  0
   -0.0850  -12.0830  -22.7180 C   0  0  0  0  0  0  0  0  0  0  0  0
   -0.2290  -12.5120  -21.5730 O   0  0  0  0  0  0  0  0  0  0  0  0
    1.0930  -13.5900  -23.1880 H   0  0  0  0  0  0  0  0  0  0  0  0
   -0.8730  -10.9100  -23.1040 C   0  0  0  0  0  0  0  0  0  0  0  0
   -1.1470  -10.7390  -24.4690 C   0  0  0  0  0  3  0  0  0  0  0  0
   -1.8650   -9.6230  -24.8980 C   0  0  0  0  0  3  0  0  0  0  0  0
   -2.2880   -8.6740  -23.9670 C   0  0  0  0  0  0  0  0  0  0  0  0
   -3.1750   -7.2990  -24.4990 Cl  0  0  0  0  0  0  0  0  0  0  0  0
   -1.9920   -8.8230  -22.6120 C   0  0  0  0  0  3  0  0  0  0  0  0
   -1.2720   -9.9390  -22.1760 C   0  0  0  0  0  0  0  0  0  0  0  0
   -0.8920  -10.0500  -20.4960 Cl  0  0  0  0  0  0  0  0  0  0  0  0
  2 15  1  0  0  0  0
  2 12  1  0  0  0  0
  3  2  2  0  0  0  0
  4  3  1  0  0  0  0
  4  5  2  0  0  0  0
  5  6  1  0  0  0  0
  6 12  2  0  0  0  0
  6  7  1  0  0  0  0
  7  9  2  0  0  0  0
  8  7  1  0  0  0  0
  8  1  1  0  0  0  0
  9 10  1  0  0  0  0
 11 10  2  0  0  0  0
 12 11  1  0  0  0  0
 13  8  1  0  0  0  0
 14 18  1  0  0  0  0
 14 17  1  0  0  0  0
 15 14  1  0  0  0  0
 16 15  2  0  0  0  0
 19  1  1  0  0  0  0
 19 24  1  0  0  0  0
 20 21  1  0  0  0  0
 20 19  2  0  0  0  0
 21 22  2  0  0  0  0
 22 23  1  0  0  0  0
 23 25  1  0  0  0  0
 24 23  2  0  0  0  0
 25 28  1  0  0  0  0
 25 26  1  0  0  0  0
 26 27  2  0  0  0  0
 29 26  1  0  0  0  0
 29 35  1  0  0  0  0
 30 29  2  0  0  0  0
 31 30  1  0  0  0  0
 31 32  2  0  0  0  0
 32 34  1  0  0  0  0
 33 32  1  0  0  0  0
 34 35  2  0  0  0  0
 35 36  1  0  0  0  0
M  END
>  <minimizedAffinity>
-7.19564486

$$$$

 OpenBabel10152419523D

 36 39  0  0  0  0  0  0  0  0999 V2000
    2.2390  -10.6840  -26.4020 C   0  0  0  0  0  2  0  0  0  0  0  0
    0.3470   -4.9330  -27.2840 C   0  0  0  0  0  0  0  0  0  0  0  0
   -0.8620   -4.9640  -26.5730 C   0  0  0  0  0  3  0  0  0  0  0  0
   -1.2630   -6.1410  -25.9660 C   0  0  0  0  0  3  0  0  0  0  0  0
   -0.4470   -7.2650  -26.0650 C   0  0  0  0  0  3  0  0  0  0  0  0
    0.7880   -7.2300  -26.7710 C   0  0  0  0  0  0  0  0  0  0  0  0
    1.6740   -8.3240  -26.8770 C   0  0  0  0  0  0  0  0  0  0  0  0
    1.3820   -9.5240  -26.2390 N   0  0  0  0  0  0  0  0  0  0  0  0
    2.8010   -8.2560  -27.6010 N   0  0  0  0  0  0  0  0  0  0  0  0
    3.0820   -7.0840  -28.1730 C   0  0  0  0  0  3  0  0  0  0  0  0
    2.3480   -5.9740  -28.0870 N   0  0  0  0  0  0  0  0  0  0  0  0
    1.1910   -6.0450  -27.4080 C   0  0  0  0  0  0  0  0  0  0  0  0
    0.9170   -9.4510  -25.3450 H   0  0  0  0  0  0  0  0  0  0  0  0
    0.2030   -2.5350  -27.3360 N   0  0  0  0  0  0  0  0  0  0  0  0
    0.7100   -3.6590  -27.9300 C   0  0  0  0  0  0  0  0  0  0  0  0
    1.3630   -3.6140  -28.9610 O   0  0  0  0  0  0  0  0  0  0  0  0
    0.4300   -1.6430  -27.7550 H   0  0  0  0  0  0  0  0  0  0  0  0
   -0.3230   -2.5530  -26.4740 H   0  0  0  0  0  0  0  0  0  0  0  0
    2.2670  -11.4350  -25.0880 C   0  0  0  0  0  0  0  0  0  0  0  0
    3.4710  -11.8360  -24.5060 C   0  0  0  0  0  3  0  0  0  0  0  0
    3.4560  -12.5920  -23.3360 C   0  0  0  0  0  3  0  0  0  0  0  0
    2.2440  -12.9590  -22.7390 C   0  0  0  0  0  3  0  0  0  0  0  0
    1.0300  -12.5580  -23.2950 C   0  0  0  0  0  0  0  0  0  0  0  0
    1.0570  -11.8050  -24.4760 C   0  0  0  0  0  3  0  0  0  0  0  0
   -0.2450  -12.8890  -22.8020 N   0  0  0  0  0  0  0  0  0  0  0  0
   -1.2770  -12.1590  -22.2680 C   0  0  0  0  0  0  0  0  0  0  0  0
   -2.2250  -12.7340  -21.7330 O   0  0  0  0  0  0  0  0  0  0  0  0
   -0.4830  -13.8760  -22.8190 H   0  0  0  0  0  0  0  0  0  0  0  0
   -1.3150  -10.6950  -22.3180 C   0  0  0  0  0  0  0  0  0  0  0  0
   -1.2430  -10.0080  -21.0980 C   0  0  0  0  0  3  0  0  0  0  0  0
   -1.3080   -8.6140  -21.0820 C   0  0  0  0  0  3  0  0  0  0  0  0
   -1.4650   -7.9170  -22.2810 C   0  0  0  0  0  0  0  0  0  0  0  0
   -1.5430   -6.1980  -22.2590 Cl  0  0  0  0  0  0  0  0  0  0  0  0
   -1.5680   -8.5970  -23.4940 C   0  0  0  0  0  3  0  0  0  0  0  0
   -1.5040   -9.9940  -23.5150 C   0  0  0  0  0  0  0  0  0  0  0  0
   -1.6840  -10.7870  -25.0370 Cl  0  0  0  0  0  0  0  0  0  0  0  0
  1  8  1  0  0  0  0
  1 19  1  0  0  0  0
  2  3  1  0  0  0  0
  3  4  2  0  0  0  0
  5  4  1  0  0  0  0
  6  5  2  0  0  0  0
  7  6  1  0  0  0  0
  7  8  1  0  0  0  0
  8 13  1  0  0  0  0
  9  7  2  0  0  0  0
 10 11  2  0  0  0  0
 10  9  1  0  0  0  0
 11 12  1  0  0  0  0
 12  2  2  0  0  0  0
 12  6  1  0  0  0  0
 14 18  1  0  0  0  0
 15 14  1  0  0  0  0
 15  2  1  0  0  0  0
 16 15  2  0  0  0  0
 17 14  1  0  0  0  0
 19 20  2  0  0  0  0
 19 24  1  0  0  0  0
 20 21  1  0  0  0  0
 21 22  2  0  0  0  0
 23 25  1  0  0  0  0
 23 22  1  0  0  0  0
 24 23  2  0  0  0  0
 25 26  1  0  0  0  0
 26 27  2  0  0  0  0
 28 25  1  0  0  0  0
 29 26  1  0  0  0  0
 29 30  1  0  0  0  0
 30 31  2  0  0  0  0
 32 33  1  0  0  0  0
 32 31  1  0  0  0  0
 34 32  2  0  0  0  0
 35 34  1  0  0  0  0
 35 29  2  0  0  0  0
 36 35  1  0  0  0  0
M  END
>  <minimizedAffinity>
-7.15346193

$$$$
