
 OpenBabel10152419523D

 36 39  0  0  0  0  0  0  0  0999 V2000
    2.8020  -11.5560  -23.8760 C   0  0  0  0  0  2  0  0  0  0  0  0
    4.0900   -9.3430  -29.4320 C   0  0  0  0  0  0  0  0  0  0  0  0
    4.6200  -10.4940  -30.0340 C   0  0  0  0  0  3  0  0  0  0  0  0
    4.7220  -11.6610  -29.2980 C   0  0  0  0  0  3  0  0  0  0  0  0
    4.2820  -11.6670  -27.9770 C   0  0  0  0  0  3  0  0  0  0  0  0
    3.7270  -10.5050  -27.3700 C   0  0  0  0  0  0  0  0  0  0  0  0
    3.2320  -10.4580  -26.0490 C   0  0  0  0  0  0  0  0  0  0  0  0
    3.2320  -11.6030  -25.2620 N   0  0  0  0  0  0  0  0  0  0  0  0
    2.7690   -9.3210  -25.5060 N   0  0  0  0  0  0  0  0  0  0  0  0
    2.7420   -8.2440  -26.2900 C   0  0  0  0  0  3  0  0  0  0  0  0
    3.1270   -8.1920  -27.5660 N   0  0  0  0  0  0  0  0  0  0  0  0
    3.6410   -9.3110  -28.1060 C   0  0  0  0  0  0  0  0  0  0  0  0
    3.0520  -12.4740  -25.7420 H   0  0  0  0  0  0  0  0  0  0  0  0
    4.6680   -7.0310  -29.7410 N   0  0  0  0  0  0  0  0  0  0  0  0
    4.0290   -8.1240  -30.2590 C   0  0  0  0  0  0  0  0  0  0  0  0
    3.3970   -8.0770  -31.3030 O   0  0  0  0  0  0  0  0  0  0  0  0
    4.6430   -6.1770  -30.2800 H   0  0  0  0  0  0  0  0  0  0  0  0
    5.2100   -7.0580  -28.8880 H   0  0  0  0  0  0  0  0  0  0  0  0
    1.2900  -11.6210  -23.8510 C   0  0  0  0  0  0  0  0  0  0  0  0
    0.5950  -12.6200  -24.5340 C   0  0  0  0  0  3  0  0  0  0  0  0
   -0.7980  -12.6050  -24.5530 C   0  0  0  0  0  3  0  0  0  0  0  0
   -1.5100  -11.5920  -23.8970 C   0  0  0  0  0  3  0  0  0  0  0  0
   -0.8360  -10.5920  -23.1980 C   0  0  0  0  0  0  0  0  0  0  0  0
    0.5650  -10.6130  -23.1930 C   0  0  0  0  0  3  0  0  0  0  0  0
   -1.4410   -9.5130  -22.5290 N   0  0  0  0  0  0  0  0  0  0  0  0
   -1.5520   -8.1710  -22.7960 C   0  0  0  0  0  0  0  0  0  0  0  0
   -1.9800   -7.4050  -21.9330 O   0  0  0  0  0  0  0  0  0  0  0  0
   -1.8940   -9.7360  -21.6490 H   0  0  0  0  0  0  0  0  0  0  0  0
   -1.1930   -7.5930  -24.0940 C   0  0  0  0  0  0  0  0  0  0  0  0
   -1.3700   -8.3990  -25.2280 C   0  0  0  0  0  3  0  0  0  0  0  0
   -1.0140   -7.9130  -26.4870 C   0  0  0  0  0  3  0  0  0  0  0  0
   -0.4650   -6.6360  -26.6040 C   0  0  0  0  0  0  0  0  0  0  0  0
   -0.0280   -6.0390  -28.1570 Cl  0  0  0  0  0  0  0  0  0  0  0  0
   -0.2570   -5.8430  -25.4750 C   0  0  0  0  0  3  0  0  0  0  0  0
   -0.6120   -6.3240  -24.2120 C   0  0  0  0  0  0  0  0  0  0  0  0
   -0.2910   -5.3210  -22.8450 Cl  0  0  0  0  0  0  0  0  0  0  0  0
  1 19  1  0  0  0  0
  2 12  1  0  0  0  0
  3  2  2  0  0  0  0
  3  4  1  0  0  0  0
  4  5  2  0  0  0  0
  5  6  1  0  0  0  0
  6  7  1  0  0  0  0
  7  9  2  0  0  0  0
  7  8  1  0  0  0  0
  8  1  1  0  0  0  0
 10  9  1  0  0  0  0
 11 10  2  0  0  0  0
 12 11  1  0  0  0  0
 12  6  2  0  0  0  0
 13  8  1  0  0  0  0
 14 18  1  0  0  0  0
 15 14  1  0  0  0  0
 15  2  1  0  0  0  0
 16 15  2  0  0  0  0
 17 14  1  0  0  0  0
 19 24  1  0  0  0  0
 20 19  2  0  0  0  0
 21 20  1  0  0  0  0
 21 22  2  0  0  0  0
 22 23  1  0  0  0  0
 23 24  2  0  0  0  0
 23 25  1  0  0  0  0
 25 28  1  0  0  0  0
 26 25  1  0  0  0  0
 26 27  2  0  0  0  0
 29 26  1  0  0  0  0
 30 29  2  0  0  0  0
 31 30  1  0  0  0  0
 32 31  2  0  0  0  0
 32 34  1  0  0  0  0
 33 32  1  0  0  0  0
 34 35  2  0  0  0  0
 35 29  1  0  0  0  0
 35 36  1  0  0  0  0
M  END
>  <minimizedAffinity>
-7.70913696

$$$$
