
 OpenBabel10152419523D

 36 39  0  0  0  0  0  0  0  0999 V2000
    0.6190  -12.4150  -26.3420 C   0  0  0  0  0  2  0  0  0  0  0  0
   -2.2160   -9.3850  -21.8460 C   0  0  0  0  0  0  0  0  0  0  0  0
   -1.9730  -10.2590  -20.7750 C   0  0  0  0  0  3  0  0  0  0  0  0
   -1.2730  -11.4310  -20.9990 C   0  0  0  0  0  3  0  0  0  0  0  0
   -0.8150  -11.7090  -22.2850 C   0  0  0  0  0  3  0  0  0  0  0  0
   -1.0450  -10.8150  -23.3690 C   0  0  0  0  0  0  0  0  0  0  0  0
   -0.5750  -11.0240  -24.6830 C   0  0  0  0  0  0  0  0  0  0  0  0
    0.1950  -12.1410  -24.9810 N   0  0  0  0  0  0  0  0  0  0  0  0
   -0.8670  -10.1760  -25.6820 N   0  0  0  0  0  0  0  0  0  0  0  0
   -1.5730   -9.0910  -25.3670 C   0  0  0  0  0  3  0  0  0  0  0  0
   -2.0140   -8.7670  -24.1500 N   0  0  0  0  0  0  0  0  0  0  0  0
   -1.7730   -9.6340  -23.1510 C   0  0  0  0  0  0  0  0  0  0  0  0
    0.8320  -12.4480  -24.2590 H   0  0  0  0  0  0  0  0  0  0  0  0
   -2.2420   -7.0390  -21.3290 N   0  0  0  0  0  0  0  0  0  0  0  0
   -2.9870   -8.1650  -21.5510 C   0  0  0  0  0  0  0  0  0  0  0  0
   -4.2040   -8.1720  -21.4460 O   0  0  0  0  0  0  0  0  0  0  0  0
   -2.7390   -6.1840  -21.1200 H   0  0  0  0  0  0  0  0  0  0  0  0
   -1.2370   -7.0110  -21.4280 H   0  0  0  0  0  0  0  0  0  0  0  0
    2.0720  -12.0130  -26.4710 C   0  0  0  0  0  0  0  0  0  0  0  0
    3.0720  -12.6580  -25.7420 C   0  0  0  0  0  3  0  0  0  0  0  0
    4.3890  -12.2120  -25.8270 C   0  0  0  0  0  3  0  0  0  0  0  0
    4.7200  -11.1160  -26.6340 C   0  0  0  0  0  3  0  0  0  0  0  0
    3.7400  -10.4640  -27.3810 C   0  0  0  0  0  0  0  0  0  0  0  0
    2.4180  -10.9170  -27.2810 C   0  0  0  0  0  3  0  0  0  0  0  0
    3.9490   -9.3400  -28.2000 N   0  0  0  0  0  0  0  0  0  0  0  0
    3.4060   -8.0810  -28.2420 C   0  0  0  0  0  0  0  0  0  0  0  0
    3.6390   -7.3420  -29.1980 O   0  0  0  0  0  0  0  0  0  0  0  0
    4.6370   -9.4530  -28.9380 H   0  0  0  0  0  0  0  0  0  0  0  0
    2.5540   -7.5540  -27.1720 C   0  0  0  0  0  0  0  0  0  0  0  0
    2.6420   -8.1720  -25.9160 C   0  0  0  0  0  3  0  0  0  0  0  0
    1.8310   -7.7340  -24.8690 C   0  0  0  0  0  3  0  0  0  0  0  0
    0.9230   -6.6970  -25.0870 C   0  0  0  0  0  0  0  0  0  0  0  0
   -0.0750   -6.1570  -23.7930 Cl  0  0  0  0  0  0  0  0  0  0  0  0
    0.8090   -6.1010  -26.3420 C   0  0  0  0  0  3  0  0  0  0  0  0
    1.6190   -6.5360  -27.3950 C   0  0  0  0  0  0  0  0  0  0  0  0
    1.4040   -5.7950  -28.9390 Cl  0  0  0  0  0  0  0  0  0  0  0  0
  1  8  1  0  0  0  0
  2 15  1  0  0  0  0
  2  3  1  0  0  0  0
  4  3  2  0  0  0  0
  5  4  1  0  0  0  0
  6 12  1  0  0  0  0
  6  5  2  0  0  0  0
  7  6  1  0  0  0  0
  8  7  1  0  0  0  0
  8 13  1  0  0  0  0
  9 10  1  0  0  0  0
  9  7  2  0  0  0  0
 10 11  2  0  0  0  0
 11 12  1  0  0  0  0
 12  2  2  0  0  0  0
 14 17  1  0  0  0  0
 15 16  2  0  0  0  0
 15 14  1  0  0  0  0
 18 14  1  0  0  0  0
 19  1  1  0  0  0  0
 19 20  1  0  0  0  0
 21 20  2  0  0  0  0
 22 21  1  0  0  0  0
 23 24  1  0  0  0  0
 23 22  2  0  0  0  0
 24 19  2  0  0  0  0
 25 23  1  0  0  0  0
 26 25  1  0  0  0  0
 26 29  1  0  0  0  0
 27 26  2  0  0  0  0
 28 25  1  0  0  0  0
 29 30  1  0  0  0  0
 30 31  2  0  0  0  0
 32 31  1  0  0  0  0
 32 33  1  0  0  0  0
 34 32  2  0  0  0  0
 35 29  2  0  0  0  0
 35 34  1  0  0  0  0
 36 35  1  0  0  0  0
M  END
>  <minimizedAffinity>
-8.73573494

$$$$
