REMARK  Name = 
REMARK  11 active torsions:
REMARK  status: ('A' for Active; 'I' for Inactive)
REMARK    1  A    between atoms: C_1  and  N_2
REMARK    2  A    between atoms: N_2  and  C_3
REMARK    3  A    between atoms: N_2  and  C_4
REMARK    4  A    between atoms: C_4  and  C_5
REMARK    5  A    between atoms: C_5  and  C_6
REMARK    6  A    between atoms: C_6  and  N_7
REMARK    7  A    between atoms: C_6  and  C_21
REMARK    8  A    between atoms: N_7  and  C_8
REMARK    9  A    between atoms: C_13  and  C_14
REMARK   10  A    between atoms: C_25  and  N_26
REMARK   11  A    between atoms: C_27  and  C_29
REMARK                            x       y       z     vdW  Elec       q    Type
REMARK                         _______ _______ _______ _____ _____    ______ ____
ROOT
ATOM      1  C   UNL     1      -1.148  -0.348   2.746  0.00  0.00    +0.107 C 
ENDROOT
BRANCH   1   2
ATOM      2  C   UNL     1      -1.748  -1.670   3.213  0.00  0.00    -0.025 A 
ATOM      3  C   UNL     1      -2.931  -1.746   3.950  0.00  0.00    +0.005 A 
ATOM      4  C   UNL     1      -3.181  -2.870   4.723  0.00  0.00    +0.002 A 
ATOM      5  C   UNL     1      -2.362  -3.989   4.608  0.00  0.00    +0.023 A 
ATOM      6  C   UNL     1      -1.408  -4.069   3.605  0.00  0.00    +0.034 A 
ATOM      7  C   UNL     1      -1.056  -2.875   2.960  0.00  0.00    +0.028 A 
BRANCH   6   8
ATOM      8  N   UNL     1      -0.790  -5.255   3.162  0.00  0.00    -0.281 N 
ATOM      9  C   UNL     1      -0.940  -6.591   3.476  0.00  0.00    +0.248 C 
ATOM     10  O   UNL     1      -0.300  -7.429   2.841  0.00  0.00    -0.270 OA
ATOM     11  H   UNL     1      -0.134  -5.166   2.396  0.00  0.00    +0.155 HD
BRANCH   9  12
ATOM     12  C   UNL     1      -1.773  -7.052   4.597  0.00  0.00    +0.037 A 
ATOM     13  C   UNL     1      -1.112  -7.529   5.734  0.00  0.00    +0.014 A 
ATOM     14  C   UNL     1      -1.840  -7.799   6.892  0.00  0.00    +0.016 A 
ATOM     15  C   UNL     1      -3.221  -7.595   6.901  0.00  0.00    +0.018 A 
ATOM     16 BR   UNL     1      -4.182  -7.812   8.513  0.00  0.00    -0.050 Br
ATOM     17  C   UNL     1      -3.892  -7.198   5.742  0.00  0.00    +0.016 A 
ATOM     18  C   UNL     1      -3.169  -6.959   4.568  0.00  0.00    +0.014 A 
ENDBRANCH   9  12
ENDBRANCH   6   8
ENDBRANCH   1   2
BRANCH   1  19
ATOM     19  N   UNL     1      -1.374   0.838   3.591  0.00  0.00    -0.321 N 
ATOM     20  H   UNL     1      -1.925   1.582   3.164  0.00  0.00    +0.148 HD
BRANCH  19  21
ATOM     21  C   UNL     1      -1.830   0.853   4.899  0.00  0.00    +0.130 A 
ATOM     22  N   UNL     1      -2.886   1.676   5.003  0.00  0.00    -0.220 NA
ATOM     23  C   UNL     1      -3.616   1.567   6.111  0.00  0.00    +0.223 A 
ATOM     24  N   UNL     1      -3.411   0.685   7.092  0.00  0.00    -0.235 NA
ATOM     25  C   UNL     1      -2.309  -0.097   7.029  0.00  0.00    +0.088 A 
ATOM     26  C   UNL     1      -2.042  -1.089   7.993  0.00  0.00    +0.063 A 
ATOM     27  C   UNL     1      -0.854  -1.843   7.953  0.00  0.00    +0.015 A 
ATOM     28  C   UNL     1       0.077  -1.640   6.946  0.00  0.00    +0.002 A 
ATOM     29  C   UNL     1      -0.202  -0.721   5.943  0.00  0.00    +0.013 A 
ATOM     30  C   UNL     1      -1.407   0.024   5.951  0.00  0.00    +0.041 A 
BRANCH  26  31
ATOM     31  C   UNL     1      -3.013  -1.473   9.068  0.00  0.00    +0.244 C 
ATOM     32  N   UNL     1      -4.223  -0.843   9.113  0.00  0.00    -0.325 N 
ATOM     33  O   UNL     1      -2.756  -2.358   9.872  0.00  0.00    -0.270 OA
ATOM     34  H   UNL     1      -4.888  -1.115   9.824  0.00  0.00    +0.145 HD
ATOM     35  H   UNL     1      -4.453  -0.095   8.468  0.00  0.00    +0.145 HD
ENDBRANCH  26  31
ENDBRANCH  19  21
ENDBRANCH   1  19
BRANCH   1  36
ATOM     36  C   UNL     1      -1.589  -0.062   1.298  0.00  0.00    +0.078 C 
BRANCH  36  37
ATOM     37  C   UNL     1      -0.950   1.159   0.632  0.00  0.00    +0.133 C 
BRANCH  37  39
ATOM     38  C   UNL     1       1.150  -0.017  -0.154  0.00  0.00    +0.190 C 
ATOM     39  N   UNL     1       0.562   1.138   0.611  0.00  0.00    +0.231 N 
ATOM     40  C   UNL     1       1.108   2.449   0.090  0.00  0.00    +0.190 C 
ATOM     41  H   UNL     1       0.894   1.083   1.585  0.00  0.00    +0.203 HD
ENDBRANCH  37  39
ENDBRANCH  36  37
ENDBRANCH   1  36
TORSDOF 9
