
 OpenBabel10152419433D

 40 43  0  0  1  0  0  0  0  0999 V2000
   -1.9580   -9.3500  -23.3960 C   0  0  2  0  0  3  0  0  0  0  0  0
    1.0640  -11.1550  -24.9270 C   0  0  0  0  0  0  0  0  0  0  0  0
    0.5950  -11.4460  -26.2060 C   0  0  0  0  0  3  0  0  0  0  0  0
   -0.7500  -11.2560  -26.5120 C   0  0  0  0  0  3  0  0  0  0  0  0
   -1.6040  -10.6710  -25.5750 C   0  0  0  0  0  3  0  0  0  0  0  0
   -1.1200  -10.2330  -24.3320 C   0  0  0  0  0  0  0  0  0  0  0  0
    0.2090  -10.5650  -23.9870 C   0  0  0  0  0  3  0  0  0  0  0  0
    3.4820  -11.3010  -25.5640 C   0  0  0  0  0  0  0  0  0  0  0  0
    4.4620  -12.0270  -25.4050 O   0  0  0  0  0  0  0  0  0  0  0  0
    2.4310  -11.3440  -24.6770 N   0  0  0  0  0  0  0  0  0  0  0  0
    2.6940  -11.6530  -23.7480 H   0  0  0  0  0  0  0  0  0  0  0  0
    3.9630   -8.1590  -28.4420 C   0  0  0  0  0  0  0  0  0  0  0  0
    4.2630   -9.4810  -28.7770 C   0  0  0  0  0  3  0  0  0  0  0  0
    4.0440  -10.5110  -27.8570 C   0  0  0  0  0  3  0  0  0  0  0  0
    3.5310  -10.2210  -26.5890 C   0  0  0  0  0  0  0  0  0  0  0  0
    3.2680   -8.8860  -26.2430 C   0  0  0  0  0  3  0  0  0  0  0  0
    3.4800   -7.8590  -27.1690 C   0  0  0  0  0  3  0  0  0  0  0  0
    4.2570   -7.7370  -30.7300 C   0  0  0  0  0  1  0  0  0  0  0  0
    4.2430   -7.2210  -29.3980 O   0  0  0  0  0  0  0  0  0  0  0  0
   -2.3190   -8.0700  -23.9910 N   0  0  0  0  0  0  0  0  0  0  0  0
   -3.3100   -7.8680  -24.0550 H   0  0  0  0  0  0  0  0  0  0  0  0
   -1.3720   -7.0550  -23.9420 C   0  0  0  0  0  0  0  0  0  0  0  0
   -1.3290   -6.3240  -22.8140 N   0  0  0  0  0  0  0  0  0  0  0  0
   -0.8270   -5.0980  -22.9180 C   0  0  0  0  0  3  0  0  0  0  0  0
   -0.4710   -4.5110  -24.0600 N   0  0  0  0  0  0  0  0  0  0  0  0
   -0.4570   -5.2770  -25.1660 C   0  0  0  0  0  0  0  0  0  0  0  0
   -0.2430   -4.7440  -26.4360 C   0  0  0  0  0  0  0  0  0  0  0  0
   -0.0440   -5.5250  -27.5850 C   0  0  0  0  0  3  0  0  0  0  0  0
   -0.1490   -6.9020  -27.4920 C   0  0  0  0  0  3  0  0  0  0  0  0
   -0.5730   -7.4520  -26.2860 C   0  0  0  0  0  3  0  0  0  0  0  0
   -0.7620   -6.6380  -25.1330 C   0  0  0  0  0  0  0  0  0  0  0  0
   -0.6830   -3.3500  -26.6590 C   0  0  0  0  0  0  0  0  0  0  0  0
    0.2120   -2.6370  -27.4270 N   0  0  0  0  0  0  0  0  0  0  0  0
   -1.6930   -2.8740  -26.1950 O   0  0  0  0  0  0  0  0  0  0  0  0
    0.0060   -1.6760  -27.6520 H   0  0  0  0  0  0  0  0  0  0  0  0
    1.0390   -3.0630  -27.8280 H   0  0  0  0  0  0  0  0  0  0  0  0
   -1.2920   -9.1130  -22.0190 C   0  0  0  0  0  2  0  0  0  0  0  0
   -2.2010   -8.8770  -20.8140 C   0  0  0  0  0  2  0  0  0  0  0  0
   -3.4220   -8.2410  -21.1830 O   0  0  0  0  0  0  0  0  0  0  0  0
   -3.9710   -8.2120  -20.3780 H   0  0  0  0  0  0  0  0  0  0  0  0
  1 37  1  1  0  0  0
  2 10  1  0  0  0  0
  2  7  1  0  0  0  0
  3  2  2  0  0  0  0
  4  3  1  0  0  0  0
  4  5  2  0  0  0  0
  5  6  1  0  0  0  0
  6  7  2  0  0  0  0
  6  1  1  0  0  0  0
  8  9  2  0  0  0  0
  8 10  1  0  0  0  0
 10 11  1  0  0  0  0
 12 17  1  0  0  0  0
 13 12  2  0  0  0  0
 13 14  1  0  0  0  0
 14 15  2  0  0  0  0
 15 16  1  0  0  0  0
 15  8  1  0  0  0  0
 17 16  2  0  0  0  0
 18 19  1  0  0  0  0
 19 12  1  0  0  0  0
 20 22  1  0  0  0  0
 20  1  1  0  0  0  0
 21 20  1  0  0  0  0
 22 23  1  0  0  0  0
 24 23  2  0  0  0  0
 25 24  1  0  0  0  0
 26 31  1  0  0  0  0
 26 25  2  0  0  0  0
 27 26  1  0  0  0  0
 28 29  1  0  0  0  0
 28 27  2  0  0  0  0
 29 30  2  0  0  0  0
 30 31  1  0  0  0  0
 31 22  2  0  0  0  0
 32 27  1  0  0  0  0
 32 34  2  0  0  0  0
 33 32  1  0  0  0  0
 35 33  1  0  0  0  0
 36 33  1  0  0  0  0
 37 38  1  0  0  0  0
 39 38  1  0  0  0  0
 39 40  1  0  0  0  0
M  END
>  <minimizedAffinity>
-9.23357868

$$$$

 OpenBabel10152419433D

 40 43  0  0  1  0  0  0  0  0999 V2000
   -1.6800   -8.5490  -22.7250 C   0  0  2  0  0  3  0  0  0  0  0  0
   -0.9060   -6.0200  -25.5070 C   0  0  0  0  0  0  0  0  0  0  0  0
   -0.3550   -4.9670  -24.7800 C   0  0  0  0  0  3  0  0  0  0  0  0
   -0.4220   -4.9740  -23.3890 C   0  0  0  0  0  3  0  0  0  0  0  0
   -0.9400   -6.0850  -22.7200 C   0  0  0  0  0  3  0  0  0  0  0  0
   -1.3640   -7.2200  -23.4280 C   0  0  0  0  0  0  0  0  0  0  0  0
   -1.4230   -7.1360  -24.8370 C   0  0  0  0  0  3  0  0  0  0  0  0
    0.3450   -5.8990  -27.6740 C   0  0  0  0  0  0  0  0  0  0  0  0
    0.3370   -5.2860  -28.7400 O   0  0  0  0  0  0  0  0  0  0  0  0
   -0.7940   -5.9740  -26.9050 N   0  0  0  0  0  0  0  0  0  0  0  0
   -1.6520   -5.8810  -27.4360 H   0  0  0  0  0  0  0  0  0  0  0  0
    3.6480   -8.5350  -26.9440 C   0  0  0  0  0  0  0  0  0  0  0  0
    3.7580   -7.4970  -27.8710 C   0  0  0  0  0  3  0  0  0  0  0  0
    2.7020   -6.6010  -28.0600 C   0  0  0  0  0  3  0  0  0  0  0  0
    1.5210   -6.7450  -27.3250 C   0  0  0  0  0  0  0  0  0  0  0  0
    1.3990   -7.8130  -26.4230 C   0  0  0  0  0  3  0  0  0  0  0  0
    2.4610   -8.7030  -26.2310 C   0  0  0  0  0  3  0  0  0  0  0  0
    4.7210  -10.4210  -27.8310 C   0  0  0  0  0  1  0  0  0  0  0  0
    4.7220   -9.3770  -26.8570 O   0  0  0  0  0  0  0  0  0  0  0  0
   -2.0220   -9.6180  -23.6560 N   0  0  0  0  0  0  0  0  0  0  0  0
   -2.3260   -9.3290  -24.5790 H   0  0  0  0  0  0  0  0  0  0  0  0
   -1.4460  -10.8620  -23.4360 C   0  0  0  0  0  0  0  0  0  0  0  0
   -1.4800  -11.3290  -22.1750 N   0  0  0  0  0  0  0  0  0  0  0  0
   -0.5480  -12.2160  -21.8440 C   0  0  0  0  0  3  0  0  0  0  0  0
    0.4670  -12.5880  -22.6240 N   0  0  0  0  0  0  0  0  0  0  0  0
    0.4480  -12.1640  -23.9010 C   0  0  0  0  0  0  0  0  0  0  0  0
    1.5210  -12.3670  -24.7670 C   0  0  0  0  0  0  0  0  0  0  0  0
    1.4700  -12.1020  -26.1450 C   0  0  0  0  0  3  0  0  0  0  0  0
    0.3310  -11.5250  -26.6800 C   0  0  0  0  0  3  0  0  0  0  0  0
   -0.6720  -11.1130  -25.8080 C   0  0  0  0  0  3  0  0  0  0  0  0
   -0.5990  -11.4000  -24.4150 C   0  0  0  0  0  0  0  0  0  0  0  0
    2.8680  -12.4280  -24.1600 C   0  0  0  0  0  0  0  0  0  0  0  0
    3.8280  -11.8460  -24.9600 N   0  0  0  0  0  0  0  0  0  0  0  0
    3.1120  -12.9580  -23.1020 O   0  0  0  0  0  0  0  0  0  0  0  0
    4.7830  -11.8200  -24.6390 H   0  0  0  0  0  0  0  0  0  0  0  0
    3.5960  -11.3830  -25.8310 H   0  0  0  0  0  0  0  0  0  0  0  0
   -2.7860   -8.4230  -21.6490 C   0  0  0  0  0  2  0  0  0  0  0  0
   -2.3530   -8.2860  -20.1900 C   0  0  0  0  0  2  0  0  0  0  0  0
   -3.1850   -7.3800  -19.4700 O   0  0  0  0  0  0  0  0  0  0  0  0
   -2.8960   -7.4220  -18.5400 H   0  0  0  0  0  0  0  0  0  0  0  0
  1 37  1  1  0  0  0
  2  7  2  0  0  0  0
  2  3  1  0  0  0  0
  3  4  2  0  0  0  0
  4  5  1  0  0  0  0
  6  1  1  0  0  0  0
  6  5  2  0  0  0  0
  7  6  1  0  0  0  0
  8 15  1  0  0  0  0
  8 10  1  0  0  0  0
  9  8  2  0  0  0  0
 10  2  1  0  0  0  0
 11 10  1  0  0  0  0
 12 19  1  0  0  0  0
 12 17  1  0  0  0  0
 13 12  2  0  0  0  0
 14 13  1  0  0  0  0
 14 15  2  0  0  0  0
 15 16  1  0  0  0  0
 16 17  2  0  0  0  0
 18 19  1  0  0  0  0
 20 22  1  0  0  0  0
 20  1  1  0  0  0  0
 21 20  1  0  0  0  0
 22 23  1  0  0  0  0
 23 24  2  0  0  0  0
 25 24  1  0  0  0  0
 26 25  2  0  0  0  0
 27 32  1  0  0  0  0
 27 26  1  0  0  0  0
 28 27  2  0  0  0  0
 29 28  1  0  0  0  0
 29 30  2  0  0  0  0
 30 31  1  0  0  0  0
 31 26  1  0  0  0  0
 31 22  2  0  0  0  0
 32 34  2  0  0  0  0
 33 35  1  0  0  0  0
 33 32  1  0  0  0  0
 36 33  1  0  0  0  0
 37 38  1  0  0  0  0
 38 39  1  0  0  0  0
 39 40  1  0  0  0  0
M  END
>  <minimizedAffinity>
-8.77680016

$$$$

 OpenBabel10152419433D

 40 43  0  0  1  0  0  0  0  0999 V2000
    1.7490  -11.2700  -24.4520 C   0  0  2  0  0  3  0  0  0  0  0  0
   -1.3520   -9.7690  -22.7590 C   0  0  0  0  0  0  0  0  0  0  0  0
   -1.6680  -10.7590  -21.8300 C   0  0  0  0  0  3  0  0  0  0  0  0
   -1.0250  -11.9920  -21.8840 C   0  0  0  0  0  3  0  0  0  0  0  0
    0.0140  -12.1990  -22.7950 C   0  0  0  0  0  3  0  0  0  0  0  0
    0.4490  -11.1660  -23.6400 C   0  0  0  0  0  0  0  0  0  0  0  0
   -0.3090   -9.9750  -23.6710 C   0  0  0  0  0  3  0  0  0  0  0  0
   -1.5860   -7.2920  -23.0470 C   0  0  0  0  0  0  0  0  0  0  0  0
   -1.9060   -6.2900  -22.4100 O   0  0  0  0  0  0  0  0  0  0  0  0
   -2.0150   -8.5370  -22.6480 N   0  0  0  0  0  0  0  0  0  0  0  0
   -2.8780   -8.5220  -22.1180 H   0  0  0  0  0  0  0  0  0  0  0  0
    0.1050   -6.5770  -26.9230 C   0  0  0  0  0  0  0  0  0  0  0  0
    0.5230   -5.8350  -25.8170 C   0  0  0  0  0  3  0  0  0  0  0  0
    0.0160   -6.1130  -24.5440 C   0  0  0  0  0  3  0  0  0  0  0  0
   -0.9220   -7.1360  -24.3710 C   0  0  0  0  0  0  0  0  0  0  0  0
   -1.3690   -7.8540  -25.4910 C   0  0  0  0  0  3  0  0  0  0  0  0
   -0.8540   -7.5770  -26.7620 C   0  0  0  0  0  3  0  0  0  0  0  0
    1.2860   -4.9360  -28.1080 C   0  0  0  0  0  1  0  0  0  0  0  0
    0.6340   -6.2060  -28.1280 O   0  0  0  0  0  0  0  0  0  0  0  0
    1.6500  -10.6500  -25.7670 N   0  0  0  0  0  0  0  0  0  0  0  0
    0.7120  -10.4970  -26.1210 H   0  0  0  0  0  0  0  0  0  0  0  0
    2.7210   -9.8740  -26.1880 C   0  0  0  0  0  0  0  0  0  0  0  0
    2.8540   -8.6660  -25.6110 N   0  0  0  0  0  0  0  0  0  0  0  0
    3.5140   -7.7440  -26.3060 C   0  0  0  0  0  3  0  0  0  0  0  0
    3.9490   -7.8940  -27.5560 N   0  0  0  0  0  0  0  0  0  0  0  0
    3.8680   -9.1270  -28.0910 C   0  0  0  0  0  0  0  0  0  0  0  0
    4.1560   -9.3750  -29.4320 C   0  0  0  0  0  0  0  0  0  0  0  0
    4.2560  -10.6620  -29.9820 C   0  0  0  0  0  3  0  0  0  0  0  0
    3.9710  -11.7590  -29.1880 C   0  0  0  0  0  3  0  0  0  0  0  0
    3.4720  -11.5360  -27.9080 C   0  0  0  0  0  3  0  0  0  0  0  0
    3.3870  -10.2200  -27.3710 C   0  0  0  0  0  0  0  0  0  0  0  0
    3.9040   -8.2730  -30.3850 C   0  0  0  0  0  0  0  0  0  0  0  0
    4.6610   -7.1550  -30.1020 N   0  0  0  0  0  0  0  0  0  0  0  0
    3.1040   -8.3260  -31.2900 O   0  0  0  0  0  0  0  0  0  0  0  0
    4.5780   -6.3450  -30.6970 H   0  0  0  0  0  0  0  0  0  0  0  0
    5.3450   -7.1410  -29.3560 H   0  0  0  0  0  0  0  0  0  0  0  0
    2.2630  -12.7220  -24.5990 C   0  0  0  0  0  2  0  0  0  0  0  0
    3.7720  -12.9580  -24.5360 C   0  0  0  0  0  2  0  0  0  0  0  0
    4.3150  -12.5940  -23.2700 O   0  0  0  0  0  0  0  0  0  0  0  0
    5.2540  -12.8580  -23.2870 H   0  0  0  0  0  0  0  0  0  0  0  0
  1 37  1  6  0  0  0
  1  6  1  0  0  0  0
  2 10  1  0  0  0  0
  2  3  1  0  0  0  0
  4  3  2  0  0  0  0
  5  4  1  0  0  0  0
  6  5  2  0  0  0  0
  7  6  1  0  0  0  0
  7  2  2  0  0  0  0
  8 10  1  0  0  0  0
  8  9  2  0  0  0  0
 10 11  1  0  0  0  0
 12 17  2  0  0  0  0
 12 13  1  0  0  0  0
 13 14  2  0  0  0  0
 14 15  1  0  0  0  0
 15  8  1  0  0  0  0
 16 15  2  0  0  0  0
 17 16  1  0  0  0  0
 19 18  1  0  0  0  0
 19 12  1  0  0  0  0
 20  1  1  0  0  0  0
 21 20  1  0  0  0  0
 22 20  1  0  0  0  0
 22 23  1  0  0  0  0
 24 23  2  0  0  0  0
 25 24  1  0  0  0  0
 26 25  2  0  0  0  0
 26 31  1  0  0  0  0
 27 26  1  0  0  0  0
 28 27  2  0  0  0  0
 28 29  1  0  0  0  0
 29 30  2  0  0  0  0
 30 31  1  0  0  0  0
 31 22  2  0  0  0  0
 32 33  1  0  0  0  0
 32 27  1  0  0  0  0
 33 36  1  0  0  0  0
 34 32  2  0  0  0  0
 35 33  1  0  0  0  0
 37 38  1  0  0  0  0
 38 39  1  0  0  0  0
 40 39  1  0  0  0  0
M  END
>  <minimizedAffinity>
-8.62867451

$$$$

 OpenBabel10152419433D

 40 43  0  0  1  0  0  0  0  0999 V2000
    2.9740  -10.2430  -25.3040 C   0  0  2  0  0  3  0  0  0  0  0  0
   -0.0240  -12.2860  -24.0480 C   0  0  0  0  0  0  0  0  0  0  0  0
   -0.4150  -12.9480  -25.2100 C   0  0  0  0  0  3  0  0  0  0  0  0
    0.1400  -12.5880  -26.4340 C   0  0  0  0  0  3  0  0  0  0  0  0
    1.1660  -11.6420  -26.4850 C   0  0  0  0  0  3  0  0  0  0  0  0
    1.6790  -11.0700  -25.3100 C   0  0  0  0  0  0  0  0  0  0  0  0
    1.0080  -11.3390  -24.0970 C   0  0  0  0  0  3  0  0  0  0  0  0
   -0.7890  -11.9780  -21.6830 C   0  0  0  0  0  0  0  0  0  0  0  0
   -0.7180  -12.5260  -20.5840 O   0  0  0  0  0  0  0  0  0  0  0  0
   -0.5980  -12.7020  -22.8370 N   0  0  0  0  0  0  0  0  0  0  0  0
   -0.8130  -13.6880  -22.7410 H   0  0  0  0  0  0  0  0  0  0  0  0
   -1.9520   -7.8660  -22.0530 C   0  0  0  0  0  0  0  0  0  0  0  0
   -1.9810   -8.7160  -23.1610 C   0  0  0  0  0  3  0  0  0  0  0  0
   -1.6630  -10.0700  -23.0230 C   0  0  0  0  0  3  0  0  0  0  0  0
   -1.3040  -10.5820  -21.7720 C   0  0  0  0  0  0  0  0  0  0  0  0
   -1.2370   -9.7170  -20.6690 C   0  0  0  0  0  3  0  0  0  0  0  0
   -1.5650   -8.3630  -20.8100 C   0  0  0  0  0  3  0  0  0  0  0  0
   -1.1300   -5.7790  -22.7340 C   0  0  0  0  0  1  0  0  0  0  0  0
   -2.2480   -6.5540  -22.2980 O   0  0  0  0  0  0  0  0  0  0  0  0
    2.7300   -8.8060  -25.3190 N   0  0  0  0  0  0  0  0  0  0  0  0
    3.1400   -8.2730  -24.5600 H   0  0  0  0  0  0  0  0  0  0  0  0
    2.4460   -8.2210  -26.5460 C   0  0  0  0  0  0  0  0  0  0  0  0
    3.4860   -8.0180  -27.3740 N   0  0  0  0  0  0  0  0  0  0  0  0
    3.3460   -7.0560  -28.2800 C   0  0  0  0  0  3  0  0  0  0  0  0
    2.3120   -6.2200  -28.3560 N   0  0  0  0  0  0  0  0  0  0  0  0
    1.2530   -6.4800  -27.5660 C   0  0  0  0  0  0  0  0  0  0  0  0
    0.1780   -5.6000  -27.4520 C   0  0  0  0  0  0  0  0  0  0  0  0
   -1.0160   -5.9120  -26.7850 C   0  0  0  0  0  3  0  0  0  0  0  0
   -1.1220   -7.1220  -26.1220 C   0  0  0  0  0  3  0  0  0  0  0  0
    0.0080   -7.9290  -26.0350 C   0  0  0  0  0  3  0  0  0  0  0  0
    1.2060   -7.5920  -26.7270 C   0  0  0  0  0  0  0  0  0  0  0  0
    0.4690   -4.1620  -27.6390 C   0  0  0  0  0  0  0  0  0  0  0  0
   -0.3270   -3.3620  -26.8460 N   0  0  0  0  0  0  0  0  0  0  0  0
    1.2830   -3.7280  -28.4190 O   0  0  0  0  0  0  0  0  0  0  0  0
   -0.2060   -2.3620  -26.8840 H   0  0  0  0  0  0  0  0  0  0  0  0
   -0.9850   -3.7470  -26.1790 H   0  0  0  0  0  0  0  0  0  0  0  0
    3.9450  -10.6180  -26.4490 C   0  0  0  0  0  2  0  0  0  0  0  0
    4.6460  -11.9740  -26.3780 C   0  0  0  0  0  2  0  0  0  0  0  0
    4.5840  -12.6710  -27.6190 O   0  0  0  0  0  0  0  0  0  0  0  0
    5.1270  -13.4740  -27.5110 H   0  0  0  0  0  0  0  0  0  0  0  0
  1 37  1  6  0  0  0
  2 10  1  0  0  0  0
  3  2  2  0  0  0  0
  4  3  1  0  0  0  0
  5  4  2  0  0  0  0
  5  6  1  0  0  0  0
  6  1  1  0  0  0  0
  6  7  2  0  0  0  0
  7  2  1  0  0  0  0
  8  9  2  0  0  0  0
 10 11  1  0  0  0  0
 10  8  1  0  0  0  0
 12 17  1  0  0  0  0
 13 14  1  0  0  0  0
 13 12  2  0  0  0  0
 14 15  2  0  0  0  0
 15  8  1  0  0  0  0
 15 16  1  0  0  0  0
 17 16  2  0  0  0  0
 18 19  1  0  0  0  0
 19 12  1  0  0  0  0
 20  1  1  0  0  0  0
 20 21  1  0  0  0  0
 22 20  1  0  0  0  0
 23 22  2  0  0  0  0
 24 23  1  0  0  0  0
 25 24  2  0  0  0  0
 25 26  1  0  0  0  0
 26 27  2  0  0  0  0
 26 31  1  0  0  0  0
 27 28  1  0  0  0  0
 28 29  2  0  0  0  0
 29 30  1  0  0  0  0
 31 22  1  0  0  0  0
 31 30  2  0  0  0  0
 32 27  1  0  0  0  0
 32 33  1  0  0  0  0
 33 36  1  0  0  0  0
 34 32  2  0  0  0  0
 35 33  1  0  0  0  0
 37 38  1  0  0  0  0
 39 40  1  0  0  0  0
 39 38  1  0  0  0  0
M  END
>  <minimizedAffinity>
-7.63256264

$$$$

 OpenBabel10152419433D

 40 43  0  0  1  0  0  0  0  0999 V2000
   -1.0550   -8.8750  -23.3430 C   0  0  2  0  0  3  0  0  0  0  0  0
    1.4530  -11.5850  -24.3910 C   0  0  0  0  0  0  0  0  0  0  0  0
    0.6500  -12.4260  -25.1590 C   0  0  0  0  0  3  0  0  0  0  0  0
   -0.7310  -12.2460  -25.1700 C   0  0  0  0  0  3  0  0  0  0  0  0
   -1.2990  -11.1580  -24.5030 C   0  0  0  0  0  3  0  0  0  0  0  0
   -0.4950  -10.2130  -23.8470 C   0  0  0  0  0  0  0  0  0  0  0  0
    0.8850  -10.4920  -23.7250 C   0  0  0  0  0  3  0  0  0  0  0  0
    3.6940  -11.6930  -25.5050 C   0  0  0  0  0  0  0  0  0  0  0  0
    4.6740  -12.4310  -25.5940 O   0  0  0  0  0  0  0  0  0  0  0  0
    2.8400  -11.7960  -24.4310 N   0  0  0  0  0  0  0  0  0  0  0  0
    3.2750  -12.1720  -23.5970 H   0  0  0  0  0  0  0  0  0  0  0  0
    3.6290   -8.2920  -28.1160 C   0  0  0  0  0  0  0  0  0  0  0  0
    4.1780   -9.5030  -28.5400 C   0  0  0  0  0  3  0  0  0  0  0  0
    4.1400  -10.6270  -27.7100 C   0  0  0  0  0  3  0  0  0  0  0  0
    3.5580  -10.5420  -26.4410 C   0  0  0  0  0  0  0  0  0  0  0  0
    3.0430   -9.3130  -26.0030 C   0  0  0  0  0  3  0  0  0  0  0  0
    3.0760   -8.1920  -26.8400 C   0  0  0  0  0  3  0  0  0  0  0  0
    3.9090   -7.6380  -30.3500 C   0  0  0  0  0  1  0  0  0  0  0  0
    3.7460   -7.2440  -28.9870 O   0  0  0  0  0  0  0  0  0  0  0  0
   -0.3750   -7.7210  -23.9160 N   0  0  0  0  0  0  0  0  0  0  0  0
    0.5480   -7.5150  -23.5490 H   0  0  0  0  0  0  0  0  0  0  0  0
   -0.7520   -7.3290  -25.1930 C   0  0  0  0  0  0  0  0  0  0  0  0
   -0.7760   -8.2870  -26.1370 N   0  0  0  0  0  0  0  0  0  0  0  0
   -0.6380   -7.8860  -27.3960 C   0  0  0  0  0  3  0  0  0  0  0  0
   -0.3720   -6.6370  -27.7770 N   0  0  0  0  0  0  0  0  0  0  0  0
   -0.4190   -5.6830  -26.8290 C   0  0  0  0  0  0  0  0  0  0  0  0
   -0.0210   -4.3710  -27.0770 C   0  0  0  0  0  0  0  0  0  0  0  0
   -0.2210   -3.3130  -26.1760 C   0  0  0  0  0  3  0  0  0  0  0  0
   -0.7620   -3.5800  -24.9310 C   0  0  0  0  0  3  0  0  0  0  0  0
   -0.9700   -4.9090  -24.5730 C   0  0  0  0  0  3  0  0  0  0  0  0
   -0.7650   -5.9630  -25.5080 C   0  0  0  0  0  0  0  0  0  0  0  0
    1.0300   -4.1720  -28.0990 C   0  0  0  0  0  0  0  0  0  0  0  0
    2.0520   -5.0900  -27.9820 N   0  0  0  0  0  0  0  0  0  0  0  0
    1.0170   -3.2870  -28.9230 O   0  0  0  0  0  0  0  0  0  0  0  0
    2.8180   -5.0540  -28.6370 H   0  0  0  0  0  0  0  0  0  0  0  0
    2.0290   -5.8390  -27.3020 H   0  0  0  0  0  0  0  0  0  0  0  0
   -1.0640   -8.7590  -21.7990 C   0  0  0  0  0  2  0  0  0  0  0  0
   -2.3570   -9.1080  -21.0620 C   0  0  0  0  0  2  0  0  0  0  0  0
   -2.5670  -10.5150  -20.9920 O   0  0  0  0  0  0  0  0  0  0  0  0
   -3.3560  -10.6480  -20.4340 H   0  0  0  0  0  0  0  0  0  0  0  0
  1 37  1  1  0  0  0
  2  7  1  0  0  0  0
  3  2  2  0  0  0  0
  4  3  1  0  0  0  0
  4  5  2  0  0  0  0
  5  6  1  0  0  0  0
  6  7  2  0  0  0  0
  6  1  1  0  0  0  0
  8 10  1  0  0  0  0
  9  8  2  0  0  0  0
 10  2  1  0  0  0  0
 10 11  1  0  0  0  0
 12 17  1  0  0  0  0
 13 12  2  0  0  0  0
 13 14  1  0  0  0  0
 14 15  2  0  0  0  0
 15 16  1  0  0  0  0
 15  8  1  0  0  0  0
 17 16  2  0  0  0  0
 18 19  1  0  0  0  0
 19 12  1  0  0  0  0
 20 21  1  0  0  0  0
 20  1  1  0  0  0  0
 22 20  1  0  0  0  0
 23 22  2  0  0  0  0
 24 23  1  0  0  0  0
 25 24  2  0  0  0  0
 25 26  1  0  0  0  0
 26 31  1  0  0  0  0
 27 26  2  0  0  0  0
 27 28  1  0  0  0  0
 28 29  2  0  0  0  0
 29 30  1  0  0  0  0
 31 22  1  0  0  0  0
 31 30  2  0  0  0  0
 32 33  1  0  0  0  0
 32 27  1  0  0  0  0
 33 36  1  0  0  0  0
 34 32  2  0  0  0  0
 35 33  1  0  0  0  0
 37 38  1  0  0  0  0
 38 39  1  0  0  0  0
 39 40  1  0  0  0  0
M  END
>  <minimizedAffinity>
-7.50439548

$$$$

 OpenBabel10152419433D

 40 43  0  0  1  0  0  0  0  0999 V2000
    0.0350  -11.5030  -25.2220 C   0  0  2  0  0  3  0  0  0  0  0  0
   -1.5840  -11.0040  -21.7780 C   0  0  0  0  0  0  0  0  0  0  0  0
   -0.8880  -11.9320  -21.0060 C   0  0  0  0  0  3  0  0  0  0  0  0
   -0.0530  -12.8600  -21.6230 C   0  0  0  0  0  3  0  0  0  0  0  0
    0.1720  -12.7910  -22.9990 C   0  0  0  0  0  3  0  0  0  0  0  0
   -0.4020  -11.7710  -23.7740 C   0  0  0  0  0  0  0  0  0  0  0  0
   -1.3560  -10.9310  -23.1580 C   0  0  0  0  0  3  0  0  0  0  0  0
   -2.3140   -8.7030  -21.1080 C   0  0  0  0  0  0  0  0  0  0  0  0
   -2.6190   -8.0600  -20.1050 O   0  0  0  0  0  0  0  0  0  0  0  0
   -2.3950  -10.0770  -21.1060 N   0  0  0  0  0  0  0  0  0  0  0  0
   -3.0710  -10.4450  -20.4460 H   0  0  0  0  0  0  0  0  0  0  0  0
   -1.5220   -6.9470  -24.9390 C   0  0  0  0  0  0  0  0  0  0  0  0
   -2.7430   -7.5720  -24.6830 C   0  0  0  0  0  3  0  0  0  0  0  0
   -3.0230   -8.0880  -23.4140 C   0  0  0  0  0  3  0  0  0  0  0  0
   -2.0730   -7.9870  -22.3920 C   0  0  0  0  0  0  0  0  0  0  0  0
   -0.8310   -7.3920  -22.6640 C   0  0  0  0  0  3  0  0  0  0  0  0
   -0.5590   -6.8710  -23.9340 C   0  0  0  0  0  3  0  0  0  0  0  0
    0.0400   -6.4410  -26.6130 C   0  0  0  0  0  1  0  0  0  0  0  0
   -1.3320   -6.5060  -26.2200 O   0  0  0  0  0  0  0  0  0  0  0  0
    1.4550  -11.7450  -25.4420 N   0  0  0  0  0  0  0  0  0  0  0  0
    1.6920  -12.5750  -25.9740 H   0  0  0  0  0  0  0  0  0  0  0  0
    2.3030  -10.6460  -25.3940 C   0  0  0  0  0  0  0  0  0  0  0  0
    1.9480   -9.6460  -24.5660 N   0  0  0  0  0  0  0  0  0  0  0  0
    2.4220   -8.4390  -24.8550 C   0  0  0  0  0  3  0  0  0  0  0  0
    3.1200   -8.1310  -25.9480 N   0  0  0  0  0  0  0  0  0  0  0  0
    3.5220   -9.1520  -26.7270 C   0  0  0  0  0  0  0  0  0  0  0  0
    4.1310   -8.9470  -27.9640 C   0  0  0  0  0  0  0  0  0  0  0  0
    4.7220   -9.9710  -28.7200 C   0  0  0  0  0  3  0  0  0  0  0  0
    4.6310  -11.2780  -28.2750 C   0  0  0  0  0  3  0  0  0  0  0  0
    3.8450  -11.5410  -27.1560 C   0  0  0  0  0  3  0  0  0  0  0  0
    3.2620  -10.4830  -26.4030 C   0  0  0  0  0  0  0  0  0  0  0  0
    3.7510   -7.7230  -28.7020 C   0  0  0  0  0  0  0  0  0  0  0  0
    4.2670   -6.5830  -28.1220 N   0  0  0  0  0  0  0  0  0  0  0  0
    3.0410   -7.7120  -29.6800 O   0  0  0  0  0  0  0  0  0  0  0  0
    4.0800   -5.6900  -28.5500 H   0  0  0  0  0  0  0  0  0  0  0  0
    4.8820   -6.6180  -27.3180 H   0  0  0  0  0  0  0  0  0  0  0  0
   -0.3350  -10.0850  -25.7200 C   0  0  0  0  0  2  0  0  0  0  0  0
   -1.4360   -9.9600  -26.7730 C   0  0  0  0  0  2  0  0  0  0  0  0
   -2.5960  -10.7080  -26.4220 O   0  0  0  0  0  0  0  0  0  0  0  0
   -3.2710  -10.5010  -27.0940 H   0  0  0  0  0  0  0  0  0  0  0  0
  1 37  1  1  0  0  0
  1  6  1  0  0  0  0
  2 10  1  0  0  0  0
  2  3  1  0  0  0  0
  4  3  2  0  0  0  0
  5  4  1  0  0  0  0
  6  7  1  0  0  0  0
  6  5  2  0  0  0  0
  7  2  2  0  0  0  0
  8 10  1  0  0  0  0
  8  9  2  0  0  0  0
 10 11  1  0  0  0  0
 12 13  2  0  0  0  0
 12 17  1  0  0  0  0
 13 14  1  0  0  0  0
 14 15  2  0  0  0  0
 15  8  1  0  0  0  0
 16 15  1  0  0  0  0
 17 16  2  0  0  0  0
 18 19  1  0  0  0  0
 19 12  1  0  0  0  0
 20 22  1  0  0  0  0
 20  1  1  0  0  0  0
 21 20  1  0  0  0  0
 22 23  1  0  0  0  0
 24 23  2  0  0  0  0
 25 24  1  0  0  0  0
 26 31  1  0  0  0  0
 26 25  2  0  0  0  0
 27 26  1  0  0  0  0
 28 29  1  0  0  0  0
 28 27  2  0  0  0  0
 29 30  2  0  0  0  0
 30 31  1  0  0  0  0
 31 22  2  0  0  0  0
 32 33  1  0  0  0  0
 32 27  1  0  0  0  0
 33 36  1  0  0  0  0
 34 32  2  0  0  0  0
 35 33  1  0  0  0  0
 38 39  1  0  0  0  0
 38 37  1  0  0  0  0
 40 39  1  0  0  0  0
M  END
>  <minimizedAffinity>
-7.32998228

$$$$

 OpenBabel10152419433D

 40 43  0  0  1  0  0  0  0  0999 V2000
    0.4460   -8.1030  -24.0300 C   0  0  2  0  0  3  0  0  0  0  0  0
    3.0040   -8.4840  -26.8670 C   0  0  0  0  0  0  0  0  0  0  0  0
    3.2420   -9.8570  -26.8440 C   0  0  0  0  0  3  0  0  0  0  0  0
    2.7520  -10.6280  -25.7940 C   0  0  0  0  0  3  0  0  0  0  0  0
    1.9290  -10.0490  -24.8260 C   0  0  0  0  0  3  0  0  0  0  0  0
    1.5540   -8.6990  -24.9120 C   0  0  0  0  0  0  0  0  0  0  0  0
    2.1760   -7.9020  -25.8980 C   0  0  0  0  0  3  0  0  0  0  0  0
    2.8070   -7.0200  -28.8900 C   0  0  0  0  0  0  0  0  0  0  0  0
    3.2070   -6.9490  -30.0510 O   0  0  0  0  0  0  0  0  0  0  0  0
    3.5020   -7.7550  -27.9580 N   0  0  0  0  0  0  0  0  0  0  0  0
    4.4890   -7.8510  -28.1660 H   0  0  0  0  0  0  0  0  0  0  0  0
   -0.2320   -4.4530  -27.2870 C   0  0  0  0  0  0  0  0  0  0  0  0
    0.9620   -3.9210  -27.7790 C   0  0  0  0  0  3  0  0  0  0  0  0
    1.9230   -4.7540  -28.3580 C   0  0  0  0  0  3  0  0  0  0  0  0
    1.6970   -6.1320  -28.4420 C   0  0  0  0  0  0  0  0  0  0  0  0
    0.5140   -6.6680  -27.9120 C   0  0  0  0  0  3  0  0  0  0  0  0
   -0.4490   -5.8290  -27.3400 C   0  0  0  0  0  3  0  0  0  0  0  0
   -0.6000   -2.2200  -26.6760 C   0  0  0  0  0  1  0  0  0  0  0  0
   -1.0920   -3.5610  -26.7100 O   0  0  0  0  0  0  0  0  0  0  0  0
   -0.8940   -8.4390  -24.4940 N   0  0  0  0  0  0  0  0  0  0  0  0
   -1.0040   -8.5640  -25.4950 H   0  0  0  0  0  0  0  0  0  0  0  0
   -1.7470   -9.0540  -23.5870 C   0  0  0  0  0  0  0  0  0  0  0  0
   -2.5240   -8.2440  -22.8460 N   0  0  0  0  0  0  0  0  0  0  0  0
   -2.9490   -8.7270  -21.6830 C   0  0  0  0  0  3  0  0  0  0  0  0
   -2.5770   -9.8930  -21.1570 N   0  0  0  0  0  0  0  0  0  0  0  0
   -1.8550  -10.7170  -21.9390 C   0  0  0  0  0  0  0  0  0  0  0  0
   -1.2890  -11.8950  -21.4530 C   0  0  0  0  0  0  0  0  0  0  0  0
   -0.6860  -12.8640  -22.2710 C   0  0  0  0  0  3  0  0  0  0  0  0
   -0.5570  -12.6170  -23.6270 C   0  0  0  0  0  3  0  0  0  0  0  0
   -0.9170  -11.3620  -24.1070 C   0  0  0  0  0  3  0  0  0  0  0  0
   -1.5330  -10.3990  -23.2580 C   0  0  0  0  0  0  0  0  0  0  0  0
   -0.9110  -11.9150  -20.0240 C   0  0  0  0  0  0  0  0  0  0  0  0
   -0.3440  -10.7260  -19.6170 N   0  0  0  0  0  0  0  0  0  0  0  0
   -1.0480  -12.8720  -19.2990 O   0  0  0  0  0  0  0  0  0  0  0  0
   -0.0580  -10.6250  -18.6560 H   0  0  0  0  0  0  0  0  0  0  0  0
   -0.2630   -9.9280  -20.2350 H   0  0  0  0  0  0  0  0  0  0  0  0
    0.5650   -6.5700  -23.8520 C   0  0  0  0  0  2  0  0  0  0  0  0
   -0.6420   -5.8180  -23.2910 C   0  0  0  0  0  2  0  0  0  0  0  0
   -0.8600   -4.5820  -23.9650 O   0  0  0  0  0  0  0  0  0  0  0  0
   -1.6910   -4.2180  -23.6080 H   0  0  0  0  0  0  0  0  0  0  0  0
  1 37  1  6  0  0  0
  2  3  2  0  0  0  0
  2  7  1  0  0  0  0
  3  4  1  0  0  0  0
  4  5  2  0  0  0  0
  6  5  1  0  0  0  0
  6  1  1  0  0  0  0
  7  6  2  0  0  0  0
  8 15  1  0  0  0  0
  8 10  1  0  0  0  0
  9  8  2  0  0  0  0
 10  2  1  0  0  0  0
 11 10  1  0  0  0  0
 12 19  1  0  0  0  0
 13 12  2  0  0  0  0
 14 13  1  0  0  0  0
 15 14  2  0  0  0  0
 15 16  1  0  0  0  0
 16 17  2  0  0  0  0
 17 12  1  0  0  0  0
 19 18  1  0  0  0  0
 20  1  1  0  0  0  0
 20 22  1  0  0  0  0
 21 20  1  0  0  0  0
 22 31  2  0  0  0  0
 22 23  1  0  0  0  0
 23 24  2  0  0  0  0
 24 25  1  0  0  0  0
 26 27  1  0  0  0  0
 26 25  2  0  0  0  0
 27 32  1  0  0  0  0
 28 27  2  0  0  0  0
 29 28  1  0  0  0  0
 30 29  2  0  0  0  0
 30 31  1  0  0  0  0
 31 26  1  0  0  0  0
 32 33  1  0  0  0  0
 32 34  2  0  0  0  0
 33 35  1  0  0  0  0
 36 33  1  0  0  0  0
 37 38  1  0  0  0  0
 39 40  1  0  0  0  0
 39 38  1  0  0  0  0
M  END
>  <minimizedAffinity>
-7.25194931

$$$$

 OpenBabel10152419433D

 40 43  0  0  1  0  0  0  0  0999 V2000
   -1.8180   -8.1530  -23.7300 C   0  0  2  0  0  3  0  0  0  0  0  0
    0.7390  -10.9590  -24.2960 C   0  0  0  0  0  0  0  0  0  0  0  0
    0.3450  -11.4470  -25.5400 C   0  0  0  0  0  3  0  0  0  0  0  0
   -0.8570  -11.0260  -26.1020 C   0  0  0  0  0  3  0  0  0  0  0  0
   -1.6120  -10.0330  -25.4730 C   0  0  0  0  0  3  0  0  0  0  0  0
   -1.1600   -9.4210  -24.2940 C   0  0  0  0  0  0  0  0  0  0  0  0
   -0.0160   -9.9610  -23.6660 C   0  0  0  0  0  3  0  0  0  0  0  0
    2.9290  -12.1710  -24.3970 C   0  0  0  0  0  0  0  0  0  0  0  0
    3.6070  -12.9590  -23.7410 O   0  0  0  0  0  0  0  0  0  0  0  0
    1.9690  -11.3990  -23.7840 N   0  0  0  0  0  0  0  0  0  0  0  0
    2.1510  -11.2250  -22.8020 H   0  0  0  0  0  0  0  0  0  0  0  0
    3.6930  -11.1860  -28.5010 C   0  0  0  0  0  0  0  0  0  0  0  0
    4.0070  -10.2840  -27.4830 C   0  0  0  0  0  3  0  0  0  0  0  0
    3.8160  -10.6330  -26.1430 C   0  0  0  0  0  3  0  0  0  0  0  0
    3.2980  -11.8900  -25.8130 C   0  0  0  0  0  0  0  0  0  0  0  0
    2.9470  -12.7790  -26.8400 C   0  0  0  0  0  3  0  0  0  0  0  0
    3.1470  -12.4290  -28.1800 C   0  0  0  0  0  3  0  0  0  0  0  0
    4.2330   -9.3560  -29.8620 C   0  0  0  0  0  1  0  0  0  0  0  0
    3.8850  -10.7380  -29.7790 O   0  0  0  0  0  0  0  0  0  0  0  0
   -0.8880   -7.3100  -22.9900 N   0  0  0  0  0  0  0  0  0  0  0  0
   -0.3670   -7.7610  -22.2460 H   0  0  0  0  0  0  0  0  0  0  0  0
   -0.4040   -6.1780  -23.6320 C   0  0  0  0  0  0  0  0  0  0  0  0
   -1.0420   -5.0210  -23.3790 N   0  0  0  0  0  0  0  0  0  0  0  0
   -0.9470   -4.0730  -24.3060 C   0  0  0  0  0  3  0  0  0  0  0  0
   -0.3690   -4.2230  -25.4970 N   0  0  0  0  0  0  0  0  0  0  0  0
    0.3200   -5.3610  -25.7070 C   0  0  0  0  0  0  0  0  0  0  0  0
    0.8440   -5.6920  -26.9550 C   0  0  0  0  0  0  0  0  0  0  0  0
    1.7140   -6.7710  -27.1730 C   0  0  0  0  0  3  0  0  0  0  0  0
    2.0140   -7.6200  -26.1210 C   0  0  0  0  0  3  0  0  0  0  0  0
    1.3390   -7.4420  -24.9170 C   0  0  0  0  0  3  0  0  0  0  0  0
    0.4660   -6.3350  -24.7200 C   0  0  0  0  0  0  0  0  0  0  0  0
    0.1200   -5.1840  -28.1400 C   0  0  0  0  0  0  0  0  0  0  0  0
   -1.2250   -5.4870  -28.1000 N   0  0  0  0  0  0  0  0  0  0  0  0
    0.6460   -4.6000  -29.0590 O   0  0  0  0  0  0  0  0  0  0  0  0
   -1.8180   -5.1770  -28.8540 H   0  0  0  0  0  0  0  0  0  0  0  0
   -1.6490   -5.9530  -27.3080 H   0  0  0  0  0  0  0  0  0  0  0  0
   -3.0610   -8.4470  -22.8550 C   0  0  0  0  0  2  0  0  0  0  0  0
   -4.3700   -7.7420  -23.2100 C   0  0  0  0  0  2  0  0  0  0  0  0
   -5.2890   -7.7460  -22.1210 O   0  0  0  0  0  0  0  0  0  0  0  0
   -6.0490   -7.2030  -22.4020 H   0  0  0  0  0  0  0  0  0  0  0  0
  1 20  1  0  0  0  0
  1 37  1  1  0  0  0
  2 10  1  0  0  0  0
  2  7  1  0  0  0  0
  3  2  2  0  0  0  0
  4  3  1  0  0  0  0
  4  5  2  0  0  0  0
  5  6  1  0  0  0  0
  6  1  1  0  0  0  0
  6  7  2  0  0  0  0
  8 10  1  0  0  0  0
  8  9  2  0  0  0  0
 10 11  1  0  0  0  0
 12 17  2  0  0  0  0
 12 13  1  0  0  0  0
 13 14  2  0  0  0  0
 14 15  1  0  0  0  0
 15  8  1  0  0  0  0
 16 15  2  0  0  0  0
 17 16  1  0  0  0  0
 18 19  1  0  0  0  0
 19 12  1  0  0  0  0
 20 21  1  0  0  0  0
 22 23  1  0  0  0  0
 22 20  1  0  0  0  0
 24 23  2  0  0  0  0
 25 24  1  0  0  0  0
 26 25  2  0  0  0  0
 26 31  1  0  0  0  0
 27 26  1  0  0  0  0
 28 27  2  0  0  0  0
 28 29  1  0  0  0  0
 29 30  2  0  0  0  0
 30 31  1  0  0  0  0
 31 22  2  0  0  0  0
 32 33  1  0  0  0  0
 32 27  1  0  0  0  0
 33 36  1  0  0  0  0
 34 32  2  0  0  0  0
 35 33  1  0  0  0  0
 38 37  1  0  0  0  0
 38 39  1  0  0  0  0
 40 39  1  0  0  0  0
M  END
>  <minimizedAffinity>
-7.22383213

$$$$

 OpenBabel10152419433D

 40 43  0  0  1  0  0  0  0  0999 V2000
    3.2860  -11.5210  -25.7800 C   0  0  2  0  0  3  0  0  0  0  0  0
   -0.1170  -12.1670  -24.1250 C   0  0  0  0  0  0  0  0  0  0  0  0
   -0.9550  -12.2480  -25.2350 C   0  0  0  0  0  3  0  0  0  0  0  0
   -0.4770  -11.8900  -26.4930 C   0  0  0  0  0  3  0  0  0  0  0  0
    0.8690  -11.5570  -26.6600 C   0  0  0  0  0  3  0  0  0  0  0  0
    1.7660  -11.6130  -25.5820 C   0  0  0  0  0  0  0  0  0  0  0  0
    1.2350  -11.8360  -24.2920 C   0  0  0  0  0  3  0  0  0  0  0  0
   -0.7530  -11.8230  -21.7270 C   0  0  0  0  0  0  0  0  0  0  0  0
   -0.6420  -12.3670  -20.6300 O   0  0  0  0  0  0  0  0  0  0  0  0
   -0.6400  -12.5590  -22.8840 N   0  0  0  0  0  0  0  0  0  0  0  0
   -0.8790  -13.5370  -22.7700 H   0  0  0  0  0  0  0  0  0  0  0  0
   -1.7940   -7.6700  -21.9830 C   0  0  0  0  0  0  0  0  0  0  0  0
   -1.6240   -8.4330  -23.1400 C   0  0  0  0  0  3  0  0  0  0  0  0
   -1.3470   -9.8010  -23.0520 C   0  0  0  0  0  3  0  0  0  0  0  0
   -1.2300  -10.4130  -21.8000 C   0  0  0  0  0  0  0  0  0  0  0  0
   -1.3620   -9.6350  -20.6400 C   0  0  0  0  0  3  0  0  0  0  0  0
   -1.6470   -8.2680  -20.7320 C   0  0  0  0  0  3  0  0  0  0  0  0
   -0.9880   -5.6610  -22.8830 C   0  0  0  0  0  1  0  0  0  0  0  0
   -2.0280   -6.3370  -22.1750 O   0  0  0  0  0  0  0  0  0  0  0  0
    3.6940  -10.3220  -26.5010 N   0  0  0  0  0  0  0  0  0  0  0  0
    3.9440  -10.4470  -27.4760 H   0  0  0  0  0  0  0  0  0  0  0  0
    3.2380   -9.1020  -26.0190 C   0  0  0  0  0  0  0  0  0  0  0  0
    2.7840   -9.0860  -24.7520 N   0  0  0  0  0  0  0  0  0  0  0  0
    1.9180   -8.1270  -24.4430 C   0  0  0  0  0  3  0  0  0  0  0  0
    1.3910   -7.2630  -25.3090 N   0  0  0  0  0  0  0  0  0  0  0  0
    1.9050   -7.2500  -26.5540 C   0  0  0  0  0  0  0  0  0  0  0  0
    1.3420   -6.4950  -27.5810 C   0  0  0  0  0  0  0  0  0  0  0  0
    1.9460   -6.3150  -28.8350 C   0  0  0  0  0  3  0  0  0  0  0  0
    3.1240   -6.9840  -29.1200 C   0  0  0  0  0  3  0  0  0  0  0  0
    3.5960   -7.9110  -28.1960 C   0  0  0  0  0  3  0  0  0  0  0  0
    2.9680   -8.0710  -26.9280 C   0  0  0  0  0  0  0  0  0  0  0  0
   -0.1160   -6.2570  -27.5160 C   0  0  0  0  0  0  0  0  0  0  0  0
   -0.8160   -7.3980  -27.1850 N   0  0  0  0  0  0  0  0  0  0  0  0
   -0.6430   -5.1970  -27.7560 O   0  0  0  0  0  0  0  0  0  0  0  0
   -1.8200   -7.3490  -27.1010 H   0  0  0  0  0  0  0  0  0  0  0  0
   -0.3530   -8.2700  -26.9610 H   0  0  0  0  0  0  0  0  0  0  0  0
    3.8910  -12.7700  -26.4660 C   0  0  0  0  0  2  0  0  0  0  0  0
    4.3550  -12.6370  -27.9160 C   0  0  0  0  0  2  0  0  0  0  0  0
    3.3010  -12.2140  -28.7760 O   0  0  0  0  0  0  0  0  0  0  0  0
    3.7040  -12.0700  -29.6530 H   0  0  0  0  0  0  0  0  0  0  0  0
  1 37  1  6  0  0  0
  1  6  1  0  0  0  0
  2 10  1  0  0  0  0
  3  2  2  0  0  0  0
  4  3  1  0  0  0  0
  5  4  2  0  0  0  0
  5  6  1  0  0  0  0
  6  7  2  0  0  0  0
  7  2  1  0  0  0  0
  8  9  2  0  0  0  0
 10 11  1  0  0  0  0
 10  8  1  0  0  0  0
 12 17  1  0  0  0  0
 13 14  1  0  0  0  0
 13 12  2  0  0  0  0
 14 15  2  0  0  0  0
 15  8  1  0  0  0  0
 15 16  1  0  0  0  0
 17 16  2  0  0  0  0
 18 19  1  0  0  0  0
 19 12  1  0  0  0  0
 20 22  1  0  0  0  0
 20  1  1  0  0  0  0
 21 20  1  0  0  0  0
 22 23  1  0  0  0  0
 23 24  2  0  0  0  0
 25 24  1  0  0  0  0
 26 25  2  0  0  0  0
 27 32  1  0  0  0  0
 27 26  1  0  0  0  0
 28 27  2  0  0  0  0
 29 28  1  0  0  0  0
 29 30  2  0  0  0  0
 30 31  1  0  0  0  0
 31 26  1  0  0  0  0
 31 22  2  0  0  0  0
 32 33  1  0  0  0  0
 33 35  1  0  0  0  0
 33 36  1  0  0  0  0
 34 32  2  0  0  0  0
 38 37  1  0  0  0  0
 39 38  1  0  0  0  0
 40 39  1  0  0  0  0
M  END
>  <minimizedAffinity>
-6.70392036

$$$$
