
 OpenBabel10152419433D

 40 43  0  0  1  0  0  0  0  0999 V2000
   -1.6800   -8.5490  -22.7250 C   0  0  2  0  0  3  0  0  0  0  0  0
   -0.9060   -6.0200  -25.5070 C   0  0  0  0  0  0  0  0  0  0  0  0
   -0.3550   -4.9670  -24.7800 C   0  0  0  0  0  3  0  0  0  0  0  0
   -0.4220   -4.9740  -23.3890 C   0  0  0  0  0  3  0  0  0  0  0  0
   -0.9400   -6.0850  -22.7200 C   0  0  0  0  0  3  0  0  0  0  0  0
   -1.3640   -7.2200  -23.4280 C   0  0  0  0  0  0  0  0  0  0  0  0
   -1.4230   -7.1360  -24.8370 C   0  0  0  0  0  3  0  0  0  0  0  0
    0.3450   -5.8990  -27.6740 C   0  0  0  0  0  0  0  0  0  0  0  0
    0.3370   -5.2860  -28.7400 O   0  0  0  0  0  0  0  0  0  0  0  0
   -0.7940   -5.9740  -26.9050 N   0  0  0  0  0  0  0  0  0  0  0  0
   -1.6520   -5.8810  -27.4360 H   0  0  0  0  0  0  0  0  0  0  0  0
    3.6480   -8.5350  -26.9440 C   0  0  0  0  0  0  0  0  0  0  0  0
    3.7580   -7.4970  -27.8710 C   0  0  0  0  0  3  0  0  0  0  0  0
    2.7020   -6.6010  -28.0600 C   0  0  0  0  0  3  0  0  0  0  0  0
    1.5210   -6.7450  -27.3250 C   0  0  0  0  0  0  0  0  0  0  0  0
    1.3990   -7.8130  -26.4230 C   0  0  0  0  0  3  0  0  0  0  0  0
    2.4610   -8.7030  -26.2310 C   0  0  0  0  0  3  0  0  0  0  0  0
    4.7210  -10.4210  -27.8310 C   0  0  0  0  0  1  0  0  0  0  0  0
    4.7220   -9.3770  -26.8570 O   0  0  0  0  0  0  0  0  0  0  0  0
   -2.0220   -9.6180  -23.6560 N   0  0  0  0  0  0  0  0  0  0  0  0
   -2.3260   -9.3290  -24.5790 H   0  0  0  0  0  0  0  0  0  0  0  0
   -1.4460  -10.8620  -23.4360 C   0  0  0  0  0  0  0  0  0  0  0  0
   -1.4800  -11.3290  -22.1750 N   0  0  0  0  0  0  0  0  0  0  0  0
   -0.5480  -12.2160  -21.8440 C   0  0  0  0  0  3  0  0  0  0  0  0
    0.4670  -12.5880  -22.6240 N   0  0  0  0  0  0  0  0  0  0  0  0
    0.4480  -12.1640  -23.9010 C   0  0  0  0  0  0  0  0  0  0  0  0
    1.5210  -12.3670  -24.7670 C   0  0  0  0  0  0  0  0  0  0  0  0
    1.4700  -12.1020  -26.1450 C   0  0  0  0  0  3  0  0  0  0  0  0
    0.3310  -11.5250  -26.6800 C   0  0  0  0  0  3  0  0  0  0  0  0
   -0.6720  -11.1130  -25.8080 C   0  0  0  0  0  3  0  0  0  0  0  0
   -0.5990  -11.4000  -24.4150 C   0  0  0  0  0  0  0  0  0  0  0  0
    2.8680  -12.4280  -24.1600 C   0  0  0  0  0  0  0  0  0  0  0  0
    3.8280  -11.8460  -24.9600 N   0  0  0  0  0  0  0  0  0  0  0  0
    3.1120  -12.9580  -23.1020 O   0  0  0  0  0  0  0  0  0  0  0  0
    4.7830  -11.8200  -24.6390 H   0  0  0  0  0  0  0  0  0  0  0  0
    3.5960  -11.3830  -25.8310 H   0  0  0  0  0  0  0  0  0  0  0  0
   -2.7860   -8.4230  -21.6490 C   0  0  0  0  0  2  0  0  0  0  0  0
   -2.3530   -8.2860  -20.1900 C   0  0  0  0  0  2  0  0  0  0  0  0
   -3.1850   -7.3800  -19.4700 O   0  0  0  0  0  0  0  0  0  0  0  0
   -2.8960   -7.4220  -18.5400 H   0  0  0  0  0  0  0  0  0  0  0  0
  1 37  1  1  0  0  0
  2  7  2  0  0  0  0
  2  3  1  0  0  0  0
  3  4  2  0  0  0  0
  4  5  1  0  0  0  0
  6  1  1  0  0  0  0
  6  5  2  0  0  0  0
  7  6  1  0  0  0  0
  8 15  1  0  0  0  0
  8 10  1  0  0  0  0
  9  8  2  0  0  0  0
 10  2  1  0  0  0  0
 11 10  1  0  0  0  0
 12 19  1  0  0  0  0
 12 17  1  0  0  0  0
 13 12  2  0  0  0  0
 14 13  1  0  0  0  0
 14 15  2  0  0  0  0
 15 16  1  0  0  0  0
 16 17  2  0  0  0  0
 18 19  1  0  0  0  0
 20 22  1  0  0  0  0
 20  1  1  0  0  0  0
 21 20  1  0  0  0  0
 22 23  1  0  0  0  0
 23 24  2  0  0  0  0
 25 24  1  0  0  0  0
 26 25  2  0  0  0  0
 27 32  1  0  0  0  0
 27 26  1  0  0  0  0
 28 27  2  0  0  0  0
 29 28  1  0  0  0  0
 29 30  2  0  0  0  0
 30 31  1  0  0  0  0
 31 26  1  0  0  0  0
 31 22  2  0  0  0  0
 32 34  2  0  0  0  0
 33 35  1  0  0  0  0
 33 32  1  0  0  0  0
 36 33  1  0  0  0  0
 37 38  1  0  0  0  0
 38 39  1  0  0  0  0
 39 40  1  0  0  0  0
M  END
>  <minimizedAffinity>
-8.77680016

$$$$
