
 OpenBabel10152419433D

 40 43  0  0  1  0  0  0  0  0999 V2000
    2.9740  -10.2430  -25.3040 C   0  0  2  0  0  3  0  0  0  0  0  0
   -0.0240  -12.2860  -24.0480 C   0  0  0  0  0  0  0  0  0  0  0  0
   -0.4150  -12.9480  -25.2100 C   0  0  0  0  0  3  0  0  0  0  0  0
    0.1400  -12.5880  -26.4340 C   0  0  0  0  0  3  0  0  0  0  0  0
    1.1660  -11.6420  -26.4850 C   0  0  0  0  0  3  0  0  0  0  0  0
    1.6790  -11.0700  -25.3100 C   0  0  0  0  0  0  0  0  0  0  0  0
    1.0080  -11.3390  -24.0970 C   0  0  0  0  0  3  0  0  0  0  0  0
   -0.7890  -11.9780  -21.6830 C   0  0  0  0  0  0  0  0  0  0  0  0
   -0.7180  -12.5260  -20.5840 O   0  0  0  0  0  0  0  0  0  0  0  0
   -0.5980  -12.7020  -22.8370 N   0  0  0  0  0  0  0  0  0  0  0  0
   -0.8130  -13.6880  -22.7410 H   0  0  0  0  0  0  0  0  0  0  0  0
   -1.9520   -7.8660  -22.0530 C   0  0  0  0  0  0  0  0  0  0  0  0
   -1.9810   -8.7160  -23.1610 C   0  0  0  0  0  3  0  0  0  0  0  0
   -1.6630  -10.0700  -23.0230 C   0  0  0  0  0  3  0  0  0  0  0  0
   -1.3040  -10.5820  -21.7720 C   0  0  0  0  0  0  0  0  0  0  0  0
   -1.2370   -9.7170  -20.6690 C   0  0  0  0  0  3  0  0  0  0  0  0
   -1.5650   -8.3630  -20.8100 C   0  0  0  0  0  3  0  0  0  0  0  0
   -1.1300   -5.7790  -22.7340 C   0  0  0  0  0  1  0  0  0  0  0  0
   -2.2480   -6.5540  -22.2980 O   0  0  0  0  0  0  0  0  0  0  0  0
    2.7300   -8.8060  -25.3190 N   0  0  0  0  0  0  0  0  0  0  0  0
    3.1400   -8.2730  -24.5600 H   0  0  0  0  0  0  0  0  0  0  0  0
    2.4460   -8.2210  -26.5460 C   0  0  0  0  0  0  0  0  0  0  0  0
    3.4860   -8.0180  -27.3740 N   0  0  0  0  0  0  0  0  0  0  0  0
    3.3460   -7.0560  -28.2800 C   0  0  0  0  0  3  0  0  0  0  0  0
    2.3120   -6.2200  -28.3560 N   0  0  0  0  0  0  0  0  0  0  0  0
    1.2530   -6.4800  -27.5660 C   0  0  0  0  0  0  0  0  0  0  0  0
    0.1780   -5.6000  -27.4520 C   0  0  0  0  0  0  0  0  0  0  0  0
   -1.0160   -5.9120  -26.7850 C   0  0  0  0  0  3  0  0  0  0  0  0
   -1.1220   -7.1220  -26.1220 C   0  0  0  0  0  3  0  0  0  0  0  0
    0.0080   -7.9290  -26.0350 C   0  0  0  0  0  3  0  0  0  0  0  0
    1.2060   -7.5920  -26.7270 C   0  0  0  0  0  0  0  0  0  0  0  0
    0.4690   -4.1620  -27.6390 C   0  0  0  0  0  0  0  0  0  0  0  0
   -0.3270   -3.3620  -26.8460 N   0  0  0  0  0  0  0  0  0  0  0  0
    1.2830   -3.7280  -28.4190 O   0  0  0  0  0  0  0  0  0  0  0  0
   -0.2060   -2.3620  -26.8840 H   0  0  0  0  0  0  0  0  0  0  0  0
   -0.9850   -3.7470  -26.1790 H   0  0  0  0  0  0  0  0  0  0  0  0
    3.9450  -10.6180  -26.4490 C   0  0  0  0  0  2  0  0  0  0  0  0
    4.6460  -11.9740  -26.3780 C   0  0  0  0  0  2  0  0  0  0  0  0
    4.5840  -12.6710  -27.6190 O   0  0  0  0  0  0  0  0  0  0  0  0
    5.1270  -13.4740  -27.5110 H   0  0  0  0  0  0  0  0  0  0  0  0
  1 37  1  6  0  0  0
  2 10  1  0  0  0  0
  3  2  2  0  0  0  0
  4  3  1  0  0  0  0
  5  4  2  0  0  0  0
  5  6  1  0  0  0  0
  6  1  1  0  0  0  0
  6  7  2  0  0  0  0
  7  2  1  0  0  0  0
  8  9  2  0  0  0  0
 10 11  1  0  0  0  0
 10  8  1  0  0  0  0
 12 17  1  0  0  0  0
 13 14  1  0  0  0  0
 13 12  2  0  0  0  0
 14 15  2  0  0  0  0
 15  8  1  0  0  0  0
 15 16  1  0  0  0  0
 17 16  2  0  0  0  0
 18 19  1  0  0  0  0
 19 12  1  0  0  0  0
 20  1  1  0  0  0  0
 20 21  1  0  0  0  0
 22 20  1  0  0  0  0
 23 22  2  0  0  0  0
 24 23  1  0  0  0  0
 25 24  2  0  0  0  0
 25 26  1  0  0  0  0
 26 27  2  0  0  0  0
 26 31  1  0  0  0  0
 27 28  1  0  0  0  0
 28 29  2  0  0  0  0
 29 30  1  0  0  0  0
 31 22  1  0  0  0  0
 31 30  2  0  0  0  0
 32 27  1  0  0  0  0
 32 33  1  0  0  0  0
 33 36  1  0  0  0  0
 34 32  2  0  0  0  0
 35 33  1  0  0  0  0
 37 38  1  0  0  0  0
 39 40  1  0  0  0  0
 39 38  1  0  0  0  0
M  END
>  <minimizedAffinity>
-7.63256264

$$$$
