
 OpenBabel10152418283D

 37 40  0  0  0  0  0  0  0  0999 V2000
   -0.9280  -10.0090  -24.0740 C   0  0  0  0  0  0  0  0  0  0  0  0
   -1.7660  -10.6150  -25.0110 C   0  0  0  0  0  3  0  0  0  0  0  0
   -1.2460  -11.5430  -25.9100 C   0  0  0  0  0  3  0  0  0  0  0  0
    0.1030  -11.8920  -25.8480 C   0  0  0  0  0  3  0  0  0  0  0  0
    0.9400  -11.3800  -24.8450 C   0  0  0  0  0  0  0  0  0  0  0  0
    0.4010  -10.4400  -23.9550 C   0  0  0  0  0  3  0  0  0  0  0  0
   -1.2380   -7.6110  -23.3520 C   0  0  0  0  0  0  0  0  0  0  0  0
   -1.6060   -6.8770  -22.4370 O   0  0  0  0  0  0  0  0  0  0  0  0
   -1.4720   -8.9700  -23.2990 N   0  0  0  0  0  0  0  0  0  0  0  0
   -2.1760   -9.2180  -22.6140 H   0  0  0  0  0  0  0  0  0  0  0  0
    0.5190   -5.6460  -26.7790 C   0  0  0  0  0  0  0  0  0  0  0  0
   -0.8660   -5.8770  -26.6740 C   0  0  0  0  0  3  0  0  0  0  0  0
   -1.4360   -6.5500  -25.5830 C   0  0  0  0  0  3  0  0  0  0  0  0
   -0.6190   -7.0060  -24.5550 C   0  0  0  0  0  0  0  0  0  0  0  0
    0.7660   -6.8750  -24.6660 C   0  0  0  0  0  3  0  0  0  0  0  0
    1.3160   -6.1920  -25.7570 C   0  0  0  0  0  3  0  0  0  0  0  0
    0.8540   -3.4790  -27.9360 C   0  0  0  0  0  1  0  0  0  0  0  0
    1.0690   -4.9170  -27.8270 N   0  0  0  0  0  0  0  0  0  0  0  0
    1.7300   -5.5860  -28.9410 C   0  0  0  0  0  1  0  0  0  0  0  0
    2.4020  -11.7870  -24.7440 C   0  0  0  0  0  2  0  0  0  0  0  0
    3.0080  -11.9320  -26.0570 N   0  0  0  0  0  0  0  0  0  0  0  0
    2.8410  -12.7750  -26.5790 H   0  0  0  0  0  0  0  0  0  0  0  0
    3.5360  -10.8090  -26.6740 C   0  0  0  0  0  0  0  0  0  0  0  0
    3.4800   -9.6590  -25.9790 N   0  0  0  0  0  0  0  0  0  0  0  0
    3.7090   -8.5350  -26.6520 C   0  0  0  0  0  3  0  0  0  0  0  0
    3.9030   -8.4450  -27.9690 N   0  0  0  0  0  0  0  0  0  0  0  0
    3.9940   -9.5950  -28.6660 C   0  0  0  0  0  0  0  0  0  0  0  0
    4.1650   -9.5920  -30.0560 C   0  0  0  0  0  0  0  0  0  0  0  0
    4.3510  -10.7660  -30.8010 C   0  0  0  0  0  3  0  0  0  0  0  0
    4.3010  -11.9950  -30.1650 C   0  0  0  0  0  3  0  0  0  0  0  0
    4.0380  -12.0360  -28.7990 C   0  0  0  0  0  3  0  0  0  0  0  0
    3.8810  -10.8450  -28.0390 C   0  0  0  0  0  0  0  0  0  0  0  0
    4.0560   -8.3410  -30.8350 C   0  0  0  0  0  0  0  0  0  0  0  0
    4.9740   -7.3710  -30.5340 N   0  0  0  0  0  0  0  0  0  0  0  0
    3.1340   -8.1460  -31.6120 O   0  0  0  0  0  0  0  0  0  0  0  0
    4.9090   -6.4830  -31.0130 H   0  0  0  0  0  0  0  0  0  0  0  0
    5.7380   -7.5270  -29.8910 H   0  0  0  0  0  0  0  0  0  0  0  0
  1  6  1  0  0  0  0
  1  9  1  0  0  0  0
  2  1  2  0  0  0  0
  3  4  2  0  0  0  0
  3  2  1  0  0  0  0
  4  5  1  0  0  0  0
  5 20  1  0  0  0  0
  5  6  2  0  0  0  0
  7  9  1  0  0  0  0
  7  8  2  0  0  0  0
  9 10  1  0  0  0  0
 11 12  2  0  0  0  0
 11 16  1  0  0  0  0
 12 13  1  0  0  0  0
 13 14  2  0  0  0  0
 14  7  1  0  0  0  0
 15 14  1  0  0  0  0
 16 15  2  0  0  0  0
 17 18  1  0  0  0  0
 18 11  1  0  0  0  0
 19 18  1  0  0  0  0
 21 20  1  0  0  0  0
 22 21  1  0  0  0  0
 23 21  1  0  0  0  0
 23 24  1  0  0  0  0
 25 24  2  0  0  0  0
 26 25  1  0  0  0  0
 27 32  1  0  0  0  0
 27 26  2  0  0  0  0
 28 27  1  0  0  0  0
 29 30  1  0  0  0  0
 29 28  2  0  0  0  0
 30 31  2  0  0  0  0
 31 32  1  0  0  0  0
 32 23  2  0  0  0  0
 33 34  1  0  0  0  0
 33 28  1  0  0  0  0
 34 37  1  0  0  0  0
 35 33  2  0  0  0  0
 36 34  1  0  0  0  0
M  END
>  <minimizedAffinity>
-8.50998974

$$$$

 OpenBabel10152418283D

 37 40  0  0  0  0  0  0  0  0999 V2000
    1.9410   -5.8520  -28.6260 C   0  0  0  0  0  0  0  0  0  0  0  0
    1.5170   -4.5440  -28.3910 C   0  0  0  0  0  3  0  0  0  0  0  0
    0.4990   -4.2980  -27.4740 C   0  0  0  0  0  3  0  0  0  0  0  0
   -0.0700   -5.3560  -26.7650 C   0  0  0  0  0  3  0  0  0  0  0  0
    0.4150   -6.6650  -26.9010 C   0  0  0  0  0  0  0  0  0  0  0  0
    1.4350   -6.8950  -27.8360 C   0  0  0  0  0  3  0  0  0  0  0  0
    3.8800   -6.9770  -29.7850 C   0  0  0  0  0  0  0  0  0  0  0  0
    4.7430   -6.8500  -30.6500 O   0  0  0  0  0  0  0  0  0  0  0  0
    2.8600   -6.0550  -29.6710 N   0  0  0  0  0  0  0  0  0  0  0  0
    2.7610   -5.4790  -30.4980 H   0  0  0  0  0  0  0  0  0  0  0  0
    3.7330  -10.4290  -27.1850 C   0  0  0  0  0  0  0  0  0  0  0  0
    4.1710   -9.1680  -26.7360 C   0  0  0  0  0  3  0  0  0  0  0  0
    4.2590   -8.0550  -27.5860 C   0  0  0  0  0  3  0  0  0  0  0  0
    3.8970   -8.1820  -28.9220 C   0  0  0  0  0  0  0  0  0  0  0  0
    3.5440   -9.4350  -29.4230 C   0  0  0  0  0  3  0  0  0  0  0  0
    3.4520  -10.5330  -28.5590 C   0  0  0  0  0  3  0  0  0  0  0  0
    2.2600  -12.0360  -26.0030 C   0  0  0  0  0  1  0  0  0  0  0  0
    3.5820  -11.5080  -26.3220 N   0  0  0  0  0  0  0  0  0  0  0  0
    4.7160  -12.0380  -25.5760 C   0  0  0  0  0  1  0  0  0  0  0  0
   -0.1700   -7.8180  -26.1000 C   0  0  0  0  0  2  0  0  0  0  0  0
   -0.1700   -7.5340  -24.6750 N   0  0  0  0  0  0  0  0  0  0  0  0
    0.3590   -6.7490  -24.3370 H   0  0  0  0  0  0  0  0  0  0  0  0
   -1.1200   -8.1480  -23.8740 C   0  0  0  0  0  0  0  0  0  0  0  0
   -2.0650   -7.3500  -23.3450 N   0  0  0  0  0  0  0  0  0  0  0  0
   -2.7980   -7.8570  -22.3580 C   0  0  0  0  0  3  0  0  0  0  0  0
   -2.6200   -9.0520  -21.7930 N   0  0  0  0  0  0  0  0  0  0  0  0
   -1.6970   -9.8690  -22.3380 C   0  0  0  0  0  0  0  0  0  0  0  0
   -1.4220  -11.1270  -21.7890 C   0  0  0  0  0  0  0  0  0  0  0  0
   -0.5340  -12.0370  -22.3810 C   0  0  0  0  0  3  0  0  0  0  0  0
    0.1620  -11.6710  -23.5210 C   0  0  0  0  0  3  0  0  0  0  0  0
   -0.0190  -10.3910  -24.0370 C   0  0  0  0  0  3  0  0  0  0  0  0
   -0.9420   -9.4800  -23.4560 C   0  0  0  0  0  0  0  0  0  0  0  0
   -1.9860  -11.5290  -20.4840 C   0  0  0  0  0  0  0  0  0  0  0  0
   -1.0770  -11.9170  -19.5370 N   0  0  0  0  0  0  0  0  0  0  0  0
   -3.1910  -11.6180  -20.3050 O   0  0  0  0  0  0  0  0  0  0  0  0
   -1.4230  -12.2400  -18.6440 H   0  0  0  0  0  0  0  0  0  0  0  0
   -0.0790  -11.8460  -19.6810 H   0  0  0  0  0  0  0  0  0  0  0  0
  1  2  2  0  0  0  0
  1  6  1  0  0  0  0
  2  3  1  0  0  0  0
  3  4  2  0  0  0  0
  5  4  1  0  0  0  0
  5 20  1  0  0  0  0
  6  5  2  0  0  0  0
  7  9  1  0  0  0  0
  7 14  1  0  0  0  0
  8  7  2  0  0  0  0
  9  1  1  0  0  0  0
 10  9  1  0  0  0  0
 11 12  1  0  0  0  0
 11 18  1  0  0  0  0
 13 12  2  0  0  0  0
 14 13  1  0  0  0  0
 15 14  2  0  0  0  0
 15 16  1  0  0  0  0
 16 11  2  0  0  0  0
 18 17  1  0  0  0  0
 18 19  1  0  0  0  0
 20 21  1  0  0  0  0
 21 22  1  0  0  0  0
 21 23  1  0  0  0  0
 23 32  2  0  0  0  0
 23 24  1  0  0  0  0
 24 25  2  0  0  0  0
 25 26  1  0  0  0  0
 27 26  2  0  0  0  0
 27 28  1  0  0  0  0
 28 33  1  0  0  0  0
 29 28  2  0  0  0  0
 30 29  1  0  0  0  0
 31 30  2  0  0  0  0
 31 32  1  0  0  0  0
 32 27  1  0  0  0  0
 33 35  2  0  0  0  0
 33 34  1  0  0  0  0
 34 36  1  0  0  0  0
 37 34  1  0  0  0  0
M  END
>  <minimizedAffinity>
-7.62395191

$$$$

 OpenBabel10152418283D

 37 40  0  0  0  0  0  0  0  0999 V2000
   -1.3110   -8.5380  -23.3530 C   0  0  0  0  0  0  0  0  0  0  0  0
   -2.2520   -8.8460  -24.3360 C   0  0  0  0  0  3  0  0  0  0  0  0
   -2.0670   -9.9600  -25.1510 C   0  0  0  0  0  3  0  0  0  0  0  0
   -0.9590  -10.7860  -24.9590 C   0  0  0  0  0  3  0  0  0  0  0  0
   -0.0580  -10.5600  -23.9070 C   0  0  0  0  0  0  0  0  0  0  0  0
   -0.2570   -9.4290  -23.1030 C   0  0  0  0  0  3  0  0  0  0  0  0
   -1.0120   -6.0590  -22.9880 C   0  0  0  0  0  0  0  0  0  0  0  0
   -1.0250   -5.1590  -22.1520 O   0  0  0  0  0  0  0  0  0  0  0  0
   -1.4690   -7.3210  -22.6680 N   0  0  0  0  0  0  0  0  0  0  0  0
   -2.0330   -7.3290  -21.8260 H   0  0  0  0  0  0  0  0  0  0  0  0
    0.3840   -5.0070  -26.9430 C   0  0  0  0  0  0  0  0  0  0  0  0
   -0.6070   -4.2630  -26.2730 C   0  0  0  0  0  3  0  0  0  0  0  0
   -1.0910   -4.6240  -25.0070 C   0  0  0  0  0  3  0  0  0  0  0  0
   -0.5810   -5.7510  -24.3720 C   0  0  0  0  0  0  0  0  0  0  0  0
    0.3350   -6.5620  -25.0420 C   0  0  0  0  0  3  0  0  0  0  0  0
    0.8150   -6.1810  -26.3010 C   0  0  0  0  0  3  0  0  0  0  0  0
    1.5380   -5.5640  -29.0660 C   0  0  0  0  0  1  0  0  0  0  0  0
    0.9090   -4.6040  -28.1650 N   0  0  0  0  0  0  0  0  0  0  0  0
    1.0050   -3.1920  -28.5130 C   0  0  0  0  0  1  0  0  0  0  0  0
    1.1290  -11.4790  -23.6650 C   0  0  0  0  0  2  0  0  0  0  0  0
    2.3350  -10.9730  -24.2960 N   0  0  0  0  0  0  0  0  0  0  0  0
    3.1770  -10.9030  -23.7510 H   0  0  0  0  0  0  0  0  0  0  0  0
    2.3790  -10.8900  -25.6790 C   0  0  0  0  0  0  0  0  0  0  0  0
    2.1390  -12.0270  -26.3570 N   0  0  0  0  0  0  0  0  0  0  0  0
    2.4580  -12.0380  -27.6480 C   0  0  0  0  0  3  0  0  0  0  0  0
    3.0700  -11.0520  -28.3050 N   0  0  0  0  0  0  0  0  0  0  0  0
    3.2830   -9.8980  -27.6420 C   0  0  0  0  0  0  0  0  0  0  0  0
    3.9480   -8.8230  -28.2450 C   0  0  0  0  0  0  0  0  0  0  0  0
    4.1090   -7.5800  -27.6160 C   0  0  0  0  0  3  0  0  0  0  0  0
    3.6570   -7.4060  -26.3190 C   0  0  0  0  0  3  0  0  0  0  0  0
    3.0760   -8.4840  -25.6580 C   0  0  0  0  0  3  0  0  0  0  0  0
    2.8850   -9.7350  -26.3060 C   0  0  0  0  0  0  0  0  0  0  0  0
    4.6140   -8.9770  -29.5550 C   0  0  0  0  0  0  0  0  0  0  0  0
    4.9710   -7.8130  -30.1810 N   0  0  0  0  0  0  0  0  0  0  0  0
    4.7290  -10.0680  -30.0930 O   0  0  0  0  0  0  0  0  0  0  0  0
    5.3900   -7.8710  -31.0990 H   0  0  0  0  0  0  0  0  0  0  0  0
    4.8760   -6.9090  -29.7410 H   0  0  0  0  0  0  0  0  0  0  0  0
  1  6  1  0  0  0  0
  1  9  1  0  0  0  0
  2  1  2  0  0  0  0
  3  4  2  0  0  0  0
  3  2  1  0  0  0  0
  4  5  1  0  0  0  0
  5 20  1  0  0  0  0
  5  6  2  0  0  0  0
  7  9  1  0  0  0  0
  7  8  2  0  0  0  0
  9 10  1  0  0  0  0
 11 16  2  0  0  0  0
 11 12  1  0  0  0  0
 12 13  2  0  0  0  0
 13 14  1  0  0  0  0
 14  7  1  0  0  0  0
 15 14  2  0  0  0  0
 16 15  1  0  0  0  0
 17 18  1  0  0  0  0
 18 11  1  0  0  0  0
 19 18  1  0  0  0  0
 21 22  1  0  0  0  0
 21 20  1  0  0  0  0
 23 21  1  0  0  0  0
 24 23  2  0  0  0  0
 25 24  1  0  0  0  0
 26 25  2  0  0  0  0
 26 27  1  0  0  0  0
 27 32  1  0  0  0  0
 28 27  2  0  0  0  0
 28 29  1  0  0  0  0
 29 30  2  0  0  0  0
 30 31  1  0  0  0  0
 32 23  1  0  0  0  0
 32 31  2  0  0  0  0
 33 28  1  0  0  0  0
 34 37  1  0  0  0  0
 34 33  1  0  0  0  0
 35 33  2  0  0  0  0
 36 34  1  0  0  0  0
M  END
>  <minimizedAffinity>
-6.05672789

$$$$

 OpenBabel10152418283D

 37 40  0  0  0  0  0  0  0  0999 V2000
    0.1270   -4.2120  -26.9900 C   0  0  0  0  0  0  0  0  0  0  0  0
   -0.4970   -2.9670  -26.8970 C   0  0  0  0  0  3  0  0  0  0  0  0
   -1.1870   -2.6210  -25.7380 C   0  0  0  0  0  3  0  0  0  0  0  0
   -1.2220   -3.5040  -24.6590 C   0  0  0  0  0  3  0  0  0  0  0  0
   -0.5110   -4.7130  -24.6860 C   0  0  0  0  0  0  0  0  0  0  0  0
    0.1710   -5.0480  -25.8650 C   0  0  0  0  0  3  0  0  0  0  0  0
    1.4760   -5.6380  -28.5750 C   0  0  0  0  0  0  0  0  0  0  0  0
    2.0680   -5.6570  -29.6520 O   0  0  0  0  0  0  0  0  0  0  0  0
    0.6740   -4.5680  -28.2350 N   0  0  0  0  0  0  0  0  0  0  0  0
    0.4300   -3.9940  -29.0330 H   0  0  0  0  0  0  0  0  0  0  0  0
    1.7490   -9.2120  -26.1580 C   0  0  0  0  0  0  0  0  0  0  0  0
    0.5430   -8.8010  -26.7570 C   0  0  0  0  0  3  0  0  0  0  0  0
    0.4400   -7.6210  -27.5090 C   0  0  0  0  0  3  0  0  0  0  0  0
    1.5620   -6.8190  -27.6850 C   0  0  0  0  0  0  0  0  0  0  0  0
    2.7510   -7.1470  -27.0320 C   0  0  0  0  0  3  0  0  0  0  0  0
    2.8390   -8.3330  -26.2950 C   0  0  0  0  0  3  0  0  0  0  0  0
    1.4830  -11.6760  -26.1050 C   0  0  0  0  0  1  0  0  0  0  0  0
    1.8610  -10.4170  -25.4740 N   0  0  0  0  0  0  0  0  0  0  0  0
    2.1940  -10.4480  -24.0550 C   0  0  0  0  0  1  0  0  0  0  0  0
   -0.5090   -5.6620  -23.4980 C   0  0  0  0  0  2  0  0  0  0  0  0
   -1.1410   -6.9290  -23.8250 N   0  0  0  0  0  0  0  0  0  0  0  0
   -0.9540   -7.3490  -24.7200 H   0  0  0  0  0  0  0  0  0  0  0  0
   -1.7260   -7.6650  -22.8060 C   0  0  0  0  0  0  0  0  0  0  0  0
   -2.1280   -6.9760  -21.7240 N   0  0  0  0  0  0  0  0  0  0  0  0
   -2.4180   -7.6810  -20.6340 C   0  0  0  0  0  3  0  0  0  0  0  0
   -2.2620   -8.9980  -20.4970 N   0  0  0  0  0  0  0  0  0  0  0  0
   -1.8910   -9.6990  -21.5860 C   0  0  0  0  0  0  0  0  0  0  0  0
   -1.6730  -11.0810  -21.5250 C   0  0  0  0  0  0  0  0  0  0  0  0
   -1.3720  -11.8550  -22.6560 C   0  0  0  0  0  3  0  0  0  0  0  0
   -1.2140  -11.2360  -23.8840 C   0  0  0  0  0  3  0  0  0  0  0  0
   -1.3320   -9.8520  -23.9620 C   0  0  0  0  0  3  0  0  0  0  0  0
   -1.6680   -9.0710  -22.8220 C   0  0  0  0  0  0  0  0  0  0  0  0
   -1.6480  -11.7910  -20.2290 C   0  0  0  0  0  0  0  0  0  0  0  0
   -2.8700  -12.0370  -19.6620 N   0  0  0  0  0  0  0  0  0  0  0  0
   -0.6010  -12.0370  -19.6510 O   0  0  0  0  0  0  0  0  0  0  0  0
   -2.8970  -12.4830  -18.7550 H   0  0  0  0  0  0  0  0  0  0  0  0
   -3.7390  -11.8340  -20.1360 H   0  0  0  0  0  0  0  0  0  0  0  0
  1  2  2  0  0  0  0
  1  6  1  0  0  0  0
  2  3  1  0  0  0  0
  3  4  2  0  0  0  0
  5  4  1  0  0  0  0
  5 20  1  0  0  0  0
  6  5  2  0  0  0  0
  7  9  1  0  0  0  0
  7 14  1  0  0  0  0
  8  7  2  0  0  0  0
  9  1  1  0  0  0  0
 10  9  1  0  0  0  0
 11 18  1  0  0  0  0
 12 11  2  0  0  0  0
 13 12  1  0  0  0  0
 14 13  2  0  0  0  0
 14 15  1  0  0  0  0
 15 16  2  0  0  0  0
 16 11  1  0  0  0  0
 17 18  1  0  0  0  0
 18 19  1  0  0  0  0
 21 20  1  0  0  0  0
 21 23  1  0  0  0  0
 22 21  1  0  0  0  0
 23 24  1  0  0  0  0
 24 25  2  0  0  0  0
 25 26  1  0  0  0  0
 27 28  1  0  0  0  0
 27 26  2  0  0  0  0
 28 33  1  0  0  0  0
 29 28  2  0  0  0  0
 30 29  1  0  0  0  0
 31 30  2  0  0  0  0
 31 32  1  0  0  0  0
 32 23  2  0  0  0  0
 32 27  1  0  0  0  0
 33 34  1  0  0  0  0
 33 35  2  0  0  0  0
 34 36  1  0  0  0  0
 37 34  1  0  0  0  0
M  END
>  <minimizedAffinity>
-5.74701691

$$$$

 OpenBabel10152418283D

 37 40  0  0  0  0  0  0  0  0999 V2000
    1.1300   -5.7590  -28.1550 C   0  0  0  0  0  0  0  0  0  0  0  0
    0.9940   -4.4920  -27.5850 C   0  0  0  0  0  3  0  0  0  0  0  0
    0.0270   -4.2710  -26.6080 C   0  0  0  0  0  3  0  0  0  0  0  0
   -0.7780   -5.3240  -26.1750 C   0  0  0  0  0  3  0  0  0  0  0  0
   -0.5870   -6.6290  -26.6520 C   0  0  0  0  0  0  0  0  0  0  0  0
    0.3860   -6.8310  -27.6420 C   0  0  0  0  0  3  0  0  0  0  0  0
    3.1520   -6.6530  -29.3710 C   0  0  0  0  0  0  0  0  0  0  0  0
    3.9400   -6.4520  -30.2920 O   0  0  0  0  0  0  0  0  0  0  0  0
    2.0130   -5.8850  -29.2420 N   0  0  0  0  0  0  0  0  0  0  0  0
    1.7860   -5.3790  -30.0890 H   0  0  0  0  0  0  0  0  0  0  0  0
    3.6380   -9.9920  -26.6680 C   0  0  0  0  0  0  0  0  0  0  0  0
    3.4100   -8.6810  -26.2090 C   0  0  0  0  0  3  0  0  0  0  0  0
    3.2920   -7.5880  -27.0800 C   0  0  0  0  0  3  0  0  0  0  0  0
    3.3940   -7.7900  -28.4520 C   0  0  0  0  0  0  0  0  0  0  0  0
    3.7090   -9.0590  -28.9390 C   0  0  0  0  0  3  0  0  0  0  0  0
    3.8140  -10.1400  -28.0560 C   0  0  0  0  0  3  0  0  0  0  0  0
    4.7890  -12.0310  -25.8500 C   0  0  0  0  0  1  0  0  0  0  0  0
    3.6840  -11.0800  -25.8040 N   0  0  0  0  0  0  0  0  0  0  0  0
    2.5520  -11.4050  -24.9430 C   0  0  0  0  0  1  0  0  0  0  0  0
   -1.4320   -7.7910  -26.1540 C   0  0  0  0  0  2  0  0  0  0  0  0
   -0.7410   -9.0600  -26.3070 N   0  0  0  0  0  0  0  0  0  0  0  0
   -0.1810   -9.2120  -27.1270 H   0  0  0  0  0  0  0  0  0  0  0  0
   -0.6230   -9.8910  -25.2040 C   0  0  0  0  0  0  0  0  0  0  0  0
   -0.5110  -11.2070  -25.4530 N   0  0  0  0  0  0  0  0  0  0  0  0
   -0.6880  -12.0330  -24.4240 C   0  0  0  0  0  3  0  0  0  0  0  0
   -1.0500  -11.6720  -23.1930 N   0  0  0  0  0  0  0  0  0  0  0  0
   -1.1320  -10.3530  -22.9270 C   0  0  0  0  0  0  0  0  0  0  0  0
   -1.5350   -9.8860  -21.6700 C   0  0  0  0  0  0  0  0  0  0  0  0
   -1.5470   -8.5250  -21.3320 C   0  0  0  0  0  3  0  0  0  0  0  0
   -1.2120   -7.5810  -22.2880 C   0  0  0  0  0  3  0  0  0  0  0  0
   -0.8970   -8.0070  -23.5750 C   0  0  0  0  0  3  0  0  0  0  0  0
   -0.8550   -9.3890  -23.9090 C   0  0  0  0  0  0  0  0  0  0  0  0
   -2.0750  -10.8110  -20.6510 C   0  0  0  0  0  0  0  0  0  0  0  0
   -1.4680  -12.0360  -20.5780 N   0  0  0  0  0  0  0  0  0  0  0  0
   -3.0710  -10.5380  -20.0000 O   0  0  0  0  0  0  0  0  0  0  0  0
   -1.8340  -12.7140  -19.9240 H   0  0  0  0  0  0  0  0  0  0  0  0
   -0.6440  -12.2660  -21.1160 H   0  0  0  0  0  0  0  0  0  0  0  0
  1  6  2  0  0  0  0
  1  2  1  0  0  0  0
  2  3  2  0  0  0  0
  3  4  1  0  0  0  0
  5  4  2  0  0  0  0
  5 20  1  0  0  0  0
  6  5  1  0  0  0  0
  7  9  1  0  0  0  0
  7 14  1  0  0  0  0
  8  7  2  0  0  0  0
  9  1  1  0  0  0  0
 10  9  1  0  0  0  0
 11 12  1  0  0  0  0
 11 18  1  0  0  0  0
 13 12  2  0  0  0  0
 14 13  1  0  0  0  0
 15 14  2  0  0  0  0
 15 16  1  0  0  0  0
 16 11  2  0  0  0  0
 17 18  1  0  0  0  0
 18 19  1  0  0  0  0
 21 20  1  0  0  0  0
 21 23  1  0  0  0  0
 22 21  1  0  0  0  0
 23 32  1  0  0  0  0
 24 23  2  0  0  0  0
 24 25  1  0  0  0  0
 25 26  2  0  0  0  0
 26 27  1  0  0  0  0
 27 28  1  0  0  0  0
 28 29  2  0  0  0  0
 28 33  1  0  0  0  0
 30 29  1  0  0  0  0
 31 30  2  0  0  0  0
 32 31  1  0  0  0  0
 32 27  2  0  0  0  0
 33 34  1  0  0  0  0
 33 35  2  0  0  0  0
 34 36  1  0  0  0  0
 37 34  1  0  0  0  0
M  END
>  <minimizedAffinity>
-5.67285061

$$$$
