
 OpenBabel10152418283D

 37 40  0  0  0  0  0  0  0  0999 V2000
    1.1300   -5.7590  -28.1550 C   0  0  0  0  0  0  0  0  0  0  0  0
    0.9940   -4.4920  -27.5850 C   0  0  0  0  0  3  0  0  0  0  0  0
    0.0270   -4.2710  -26.6080 C   0  0  0  0  0  3  0  0  0  0  0  0
   -0.7780   -5.3240  -26.1750 C   0  0  0  0  0  3  0  0  0  0  0  0
   -0.5870   -6.6290  -26.6520 C   0  0  0  0  0  0  0  0  0  0  0  0
    0.3860   -6.8310  -27.6420 C   0  0  0  0  0  3  0  0  0  0  0  0
    3.1520   -6.6530  -29.3710 C   0  0  0  0  0  0  0  0  0  0  0  0
    3.9400   -6.4520  -30.2920 O   0  0  0  0  0  0  0  0  0  0  0  0
    2.0130   -5.8850  -29.2420 N   0  0  0  0  0  0  0  0  0  0  0  0
    1.7860   -5.3790  -30.0890 H   0  0  0  0  0  0  0  0  0  0  0  0
    3.6380   -9.9920  -26.6680 C   0  0  0  0  0  0  0  0  0  0  0  0
    3.4100   -8.6810  -26.2090 C   0  0  0  0  0  3  0  0  0  0  0  0
    3.2920   -7.5880  -27.0800 C   0  0  0  0  0  3  0  0  0  0  0  0
    3.3940   -7.7900  -28.4520 C   0  0  0  0  0  0  0  0  0  0  0  0
    3.7090   -9.0590  -28.9390 C   0  0  0  0  0  3  0  0  0  0  0  0
    3.8140  -10.1400  -28.0560 C   0  0  0  0  0  3  0  0  0  0  0  0
    4.7890  -12.0310  -25.8500 C   0  0  0  0  0  1  0  0  0  0  0  0
    3.6840  -11.0800  -25.8040 N   0  0  0  0  0  0  0  0  0  0  0  0
    2.5520  -11.4050  -24.9430 C   0  0  0  0  0  1  0  0  0  0  0  0
   -1.4320   -7.7910  -26.1540 C   0  0  0  0  0  2  0  0  0  0  0  0
   -0.7410   -9.0600  -26.3070 N   0  0  0  0  0  0  0  0  0  0  0  0
   -0.1810   -9.2120  -27.1270 H   0  0  0  0  0  0  0  0  0  0  0  0
   -0.6230   -9.8910  -25.2040 C   0  0  0  0  0  0  0  0  0  0  0  0
   -0.5110  -11.2070  -25.4530 N   0  0  0  0  0  0  0  0  0  0  0  0
   -0.6880  -12.0330  -24.4240 C   0  0  0  0  0  3  0  0  0  0  0  0
   -1.0500  -11.6720  -23.1930 N   0  0  0  0  0  0  0  0  0  0  0  0
   -1.1320  -10.3530  -22.9270 C   0  0  0  0  0  0  0  0  0  0  0  0
   -1.5350   -9.8860  -21.6700 C   0  0  0  0  0  0  0  0  0  0  0  0
   -1.5470   -8.5250  -21.3320 C   0  0  0  0  0  3  0  0  0  0  0  0
   -1.2120   -7.5810  -22.2880 C   0  0  0  0  0  3  0  0  0  0  0  0
   -0.8970   -8.0070  -23.5750 C   0  0  0  0  0  3  0  0  0  0  0  0
   -0.8550   -9.3890  -23.9090 C   0  0  0  0  0  0  0  0  0  0  0  0
   -2.0750  -10.8110  -20.6510 C   0  0  0  0  0  0  0  0  0  0  0  0
   -1.4680  -12.0360  -20.5780 N   0  0  0  0  0  0  0  0  0  0  0  0
   -3.0710  -10.5380  -20.0000 O   0  0  0  0  0  0  0  0  0  0  0  0
   -1.8340  -12.7140  -19.9240 H   0  0  0  0  0  0  0  0  0  0  0  0
   -0.6440  -12.2660  -21.1160 H   0  0  0  0  0  0  0  0  0  0  0  0
  1  6  2  0  0  0  0
  1  2  1  0  0  0  0
  2  3  2  0  0  0  0
  3  4  1  0  0  0  0
  5  4  2  0  0  0  0
  5 20  1  0  0  0  0
  6  5  1  0  0  0  0
  7  9  1  0  0  0  0
  7 14  1  0  0  0  0
  8  7  2  0  0  0  0
  9  1  1  0  0  0  0
 10  9  1  0  0  0  0
 11 12  1  0  0  0  0
 11 18  1  0  0  0  0
 13 12  2  0  0  0  0
 14 13  1  0  0  0  0
 15 14  2  0  0  0  0
 15 16  1  0  0  0  0
 16 11  2  0  0  0  0
 17 18  1  0  0  0  0
 18 19  1  0  0  0  0
 21 20  1  0  0  0  0
 21 23  1  0  0  0  0
 22 21  1  0  0  0  0
 23 32  1  0  0  0  0
 24 23  2  0  0  0  0
 24 25  1  0  0  0  0
 25 26  2  0  0  0  0
 26 27  1  0  0  0  0
 27 28  1  0  0  0  0
 28 29  2  0  0  0  0
 28 33  1  0  0  0  0
 30 29  1  0  0  0  0
 31 30  2  0  0  0  0
 32 31  1  0  0  0  0
 32 27  2  0  0  0  0
 33 34  1  0  0  0  0
 33 35  2  0  0  0  0
 34 36  1  0  0  0  0
 37 34  1  0  0  0  0
M  END
>  <minimizedAffinity>
-5.67285061

$$$$
