
 OpenBabel10152418283D

 37 40  0  0  0  0  0  0  0  0999 V2000
    1.9410   -5.8520  -28.6260 C   0  0  0  0  0  0  0  0  0  0  0  0
    1.5170   -4.5440  -28.3910 C   0  0  0  0  0  3  0  0  0  0  0  0
    0.4990   -4.2980  -27.4740 C   0  0  0  0  0  3  0  0  0  0  0  0
   -0.0700   -5.3560  -26.7650 C   0  0  0  0  0  3  0  0  0  0  0  0
    0.4150   -6.6650  -26.9010 C   0  0  0  0  0  0  0  0  0  0  0  0
    1.4350   -6.8950  -27.8360 C   0  0  0  0  0  3  0  0  0  0  0  0
    3.8800   -6.9770  -29.7850 C   0  0  0  0  0  0  0  0  0  0  0  0
    4.7430   -6.8500  -30.6500 O   0  0  0  0  0  0  0  0  0  0  0  0
    2.8600   -6.0550  -29.6710 N   0  0  0  0  0  0  0  0  0  0  0  0
    2.7610   -5.4790  -30.4980 H   0  0  0  0  0  0  0  0  0  0  0  0
    3.7330  -10.4290  -27.1850 C   0  0  0  0  0  0  0  0  0  0  0  0
    4.1710   -9.1680  -26.7360 C   0  0  0  0  0  3  0  0  0  0  0  0
    4.2590   -8.0550  -27.5860 C   0  0  0  0  0  3  0  0  0  0  0  0
    3.8970   -8.1820  -28.9220 C   0  0  0  0  0  0  0  0  0  0  0  0
    3.5440   -9.4350  -29.4230 C   0  0  0  0  0  3  0  0  0  0  0  0
    3.4520  -10.5330  -28.5590 C   0  0  0  0  0  3  0  0  0  0  0  0
    2.2600  -12.0360  -26.0030 C   0  0  0  0  0  1  0  0  0  0  0  0
    3.5820  -11.5080  -26.3220 N   0  0  0  0  0  0  0  0  0  0  0  0
    4.7160  -12.0380  -25.5760 C   0  0  0  0  0  1  0  0  0  0  0  0
   -0.1700   -7.8180  -26.1000 C   0  0  0  0  0  2  0  0  0  0  0  0
   -0.1700   -7.5340  -24.6750 N   0  0  0  0  0  0  0  0  0  0  0  0
    0.3590   -6.7490  -24.3370 H   0  0  0  0  0  0  0  0  0  0  0  0
   -1.1200   -8.1480  -23.8740 C   0  0  0  0  0  0  0  0  0  0  0  0
   -2.0650   -7.3500  -23.3450 N   0  0  0  0  0  0  0  0  0  0  0  0
   -2.7980   -7.8570  -22.3580 C   0  0  0  0  0  3  0  0  0  0  0  0
   -2.6200   -9.0520  -21.7930 N   0  0  0  0  0  0  0  0  0  0  0  0
   -1.6970   -9.8690  -22.3380 C   0  0  0  0  0  0  0  0  0  0  0  0
   -1.4220  -11.1270  -21.7890 C   0  0  0  0  0  0  0  0  0  0  0  0
   -0.5340  -12.0370  -22.3810 C   0  0  0  0  0  3  0  0  0  0  0  0
    0.1620  -11.6710  -23.5210 C   0  0  0  0  0  3  0  0  0  0  0  0
   -0.0190  -10.3910  -24.0370 C   0  0  0  0  0  3  0  0  0  0  0  0
   -0.9420   -9.4800  -23.4560 C   0  0  0  0  0  0  0  0  0  0  0  0
   -1.9860  -11.5290  -20.4840 C   0  0  0  0  0  0  0  0  0  0  0  0
   -1.0770  -11.9170  -19.5370 N   0  0  0  0  0  0  0  0  0  0  0  0
   -3.1910  -11.6180  -20.3050 O   0  0  0  0  0  0  0  0  0  0  0  0
   -1.4230  -12.2400  -18.6440 H   0  0  0  0  0  0  0  0  0  0  0  0
   -0.0790  -11.8460  -19.6810 H   0  0  0  0  0  0  0  0  0  0  0  0
  1  2  2  0  0  0  0
  1  6  1  0  0  0  0
  2  3  1  0  0  0  0
  3  4  2  0  0  0  0
  5  4  1  0  0  0  0
  5 20  1  0  0  0  0
  6  5  2  0  0  0  0
  7  9  1  0  0  0  0
  7 14  1  0  0  0  0
  8  7  2  0  0  0  0
  9  1  1  0  0  0  0
 10  9  1  0  0  0  0
 11 12  1  0  0  0  0
 11 18  1  0  0  0  0
 13 12  2  0  0  0  0
 14 13  1  0  0  0  0
 15 14  2  0  0  0  0
 15 16  1  0  0  0  0
 16 11  2  0  0  0  0
 18 17  1  0  0  0  0
 18 19  1  0  0  0  0
 20 21  1  0  0  0  0
 21 22  1  0  0  0  0
 21 23  1  0  0  0  0
 23 32  2  0  0  0  0
 23 24  1  0  0  0  0
 24 25  2  0  0  0  0
 25 26  1  0  0  0  0
 27 26  2  0  0  0  0
 27 28  1  0  0  0  0
 28 33  1  0  0  0  0
 29 28  2  0  0  0  0
 30 29  1  0  0  0  0
 31 30  2  0  0  0  0
 31 32  1  0  0  0  0
 32 27  1  0  0  0  0
 33 35  2  0  0  0  0
 33 34  1  0  0  0  0
 34 36  1  0  0  0  0
 37 34  1  0  0  0  0
M  END
>  <minimizedAffinity>
-7.62395191

$$$$
