
 OpenBabel10152418283D

 37 40  0  0  0  0  0  0  0  0999 V2000
   -0.9280  -10.0090  -24.0740 C   0  0  0  0  0  0  0  0  0  0  0  0
   -1.7660  -10.6150  -25.0110 C   0  0  0  0  0  3  0  0  0  0  0  0
   -1.2460  -11.5430  -25.9100 C   0  0  0  0  0  3  0  0  0  0  0  0
    0.1030  -11.8920  -25.8480 C   0  0  0  0  0  3  0  0  0  0  0  0
    0.9400  -11.3800  -24.8450 C   0  0  0  0  0  0  0  0  0  0  0  0
    0.4010  -10.4400  -23.9550 C   0  0  0  0  0  3  0  0  0  0  0  0
   -1.2380   -7.6110  -23.3520 C   0  0  0  0  0  0  0  0  0  0  0  0
   -1.6060   -6.8770  -22.4370 O   0  0  0  0  0  0  0  0  0  0  0  0
   -1.4720   -8.9700  -23.2990 N   0  0  0  0  0  0  0  0  0  0  0  0
   -2.1760   -9.2180  -22.6140 H   0  0  0  0  0  0  0  0  0  0  0  0
    0.5190   -5.6460  -26.7790 C   0  0  0  0  0  0  0  0  0  0  0  0
   -0.8660   -5.8770  -26.6740 C   0  0  0  0  0  3  0  0  0  0  0  0
   -1.4360   -6.5500  -25.5830 C   0  0  0  0  0  3  0  0  0  0  0  0
   -0.6190   -7.0060  -24.5550 C   0  0  0  0  0  0  0  0  0  0  0  0
    0.7660   -6.8750  -24.6660 C   0  0  0  0  0  3  0  0  0  0  0  0
    1.3160   -6.1920  -25.7570 C   0  0  0  0  0  3  0  0  0  0  0  0
    0.8540   -3.4790  -27.9360 C   0  0  0  0  0  1  0  0  0  0  0  0
    1.0690   -4.9170  -27.8270 N   0  0  0  0  0  0  0  0  0  0  0  0
    1.7300   -5.5860  -28.9410 C   0  0  0  0  0  1  0  0  0  0  0  0
    2.4020  -11.7870  -24.7440 C   0  0  0  0  0  2  0  0  0  0  0  0
    3.0080  -11.9320  -26.0570 N   0  0  0  0  0  0  0  0  0  0  0  0
    2.8410  -12.7750  -26.5790 H   0  0  0  0  0  0  0  0  0  0  0  0
    3.5360  -10.8090  -26.6740 C   0  0  0  0  0  0  0  0  0  0  0  0
    3.4800   -9.6590  -25.9790 N   0  0  0  0  0  0  0  0  0  0  0  0
    3.7090   -8.5350  -26.6520 C   0  0  0  0  0  3  0  0  0  0  0  0
    3.9030   -8.4450  -27.9690 N   0  0  0  0  0  0  0  0  0  0  0  0
    3.9940   -9.5950  -28.6660 C   0  0  0  0  0  0  0  0  0  0  0  0
    4.1650   -9.5920  -30.0560 C   0  0  0  0  0  0  0  0  0  0  0  0
    4.3510  -10.7660  -30.8010 C   0  0  0  0  0  3  0  0  0  0  0  0
    4.3010  -11.9950  -30.1650 C   0  0  0  0  0  3  0  0  0  0  0  0
    4.0380  -12.0360  -28.7990 C   0  0  0  0  0  3  0  0  0  0  0  0
    3.8810  -10.8450  -28.0390 C   0  0  0  0  0  0  0  0  0  0  0  0
    4.0560   -8.3410  -30.8350 C   0  0  0  0  0  0  0  0  0  0  0  0
    4.9740   -7.3710  -30.5340 N   0  0  0  0  0  0  0  0  0  0  0  0
    3.1340   -8.1460  -31.6120 O   0  0  0  0  0  0  0  0  0  0  0  0
    4.9090   -6.4830  -31.0130 H   0  0  0  0  0  0  0  0  0  0  0  0
    5.7380   -7.5270  -29.8910 H   0  0  0  0  0  0  0  0  0  0  0  0
  1  6  1  0  0  0  0
  1  9  1  0  0  0  0
  2  1  2  0  0  0  0
  3  4  2  0  0  0  0
  3  2  1  0  0  0  0
  4  5  1  0  0  0  0
  5 20  1  0  0  0  0
  5  6  2  0  0  0  0
  7  9  1  0  0  0  0
  7  8  2  0  0  0  0
  9 10  1  0  0  0  0
 11 12  2  0  0  0  0
 11 16  1  0  0  0  0
 12 13  1  0  0  0  0
 13 14  2  0  0  0  0
 14  7  1  0  0  0  0
 15 14  1  0  0  0  0
 16 15  2  0  0  0  0
 17 18  1  0  0  0  0
 18 11  1  0  0  0  0
 19 18  1  0  0  0  0
 21 20  1  0  0  0  0
 22 21  1  0  0  0  0
 23 21  1  0  0  0  0
 23 24  1  0  0  0  0
 25 24  2  0  0  0  0
 26 25  1  0  0  0  0
 27 32  1  0  0  0  0
 27 26  2  0  0  0  0
 28 27  1  0  0  0  0
 29 30  1  0  0  0  0
 29 28  2  0  0  0  0
 30 31  2  0  0  0  0
 31 32  1  0  0  0  0
 32 23  2  0  0  0  0
 33 34  1  0  0  0  0
 33 28  1  0  0  0  0
 34 37  1  0  0  0  0
 35 33  2  0  0  0  0
 36 34  1  0  0  0  0
M  END
>  <minimizedAffinity>
-8.50998974

$$$$
