
 OpenBabel10152420033D

 34 37  0  0  0  0  0  0  0  0999 V2000
   -2.2360   -8.5720  -21.9130 C   0  0  0  0  0  0  0  0  0  0  0  0
   -2.7380   -7.6100  -22.8040 C   0  0  0  0  0  3  0  0  0  0  0  0
   -2.6090   -7.8130  -24.1680 C   0  0  0  0  0  3  0  0  0  0  0  0
   -1.9820   -8.9700  -24.6230 C   0  0  0  0  0  3  0  0  0  0  0  0
   -1.4850   -9.9530  -23.7240 C   0  0  0  0  0  0  0  0  0  0  0  0
   -0.8470  -11.1480  -24.1240 C   0  0  0  0  0  0  0  0  0  0  0  0
   -0.6500  -11.4220  -25.4730 N   0  0  0  0  0  0  0  0  0  0  0  0
   -0.3560  -12.0220  -23.2330 N   0  0  0  0  0  0  0  0  0  0  0  0
   -0.5450  -11.7420  -21.9430 C   0  0  0  0  0  3  0  0  0  0  0  0
   -1.1630  -10.6630  -21.4570 N   0  0  0  0  0  0  0  0  0  0  0  0
   -1.6110   -9.7530  -22.3380 C   0  0  0  0  0  0  0  0  0  0  0  0
   -1.3790  -11.1440  -26.1110 H   0  0  0  0  0  0  0  0  0  0  0  0
   -3.5310   -7.7060  -20.0780 N   0  0  0  0  0  0  0  0  0  0  0  0
   -2.3500   -8.2740  -20.4730 C   0  0  0  0  0  0  0  0  0  0  0  0
   -1.4250   -8.4580  -19.6940 O   0  0  0  0  0  0  0  0  0  0  0  0
   -3.6350   -7.4860  -19.0960 H   0  0  0  0  0  0  0  0  0  0  0  0
   -4.3150   -7.5650  -20.6970 H   0  0  0  0  0  0  0  0  0  0  0  0
    0.1860  -12.5330  -25.8920 C   0  0  0  0  0  2  0  0  0  0  0  0
    1.6560  -12.1900  -26.0230 C   0  0  0  0  0  0  0  0  0  0  0  0
    2.5990  -12.9590  -25.3240 C   0  0  0  0  0  3  0  0  0  0  0  0
    3.9580  -12.6500  -25.3820 C   0  0  0  0  0  3  0  0  0  0  0  0
    4.3960  -11.5520  -26.1230 C   0  0  0  0  0  3  0  0  0  0  0  0
    3.4760  -10.7470  -26.7890 C   0  0  0  0  0  0  0  0  0  0  0  0
    2.1160  -11.0830  -26.7570 C   0  0  0  0  0  3  0  0  0  0  0  0
    3.8610   -9.6860  -27.6210 N   0  0  0  0  0  0  0  0  0  0  0  0
    3.7470   -8.3370  -27.4510 C   0  0  0  0  0  0  0  0  0  0  0  0
    4.7110   -7.6300  -27.7690 O   0  0  0  0  0  0  0  0  0  0  0  0
    4.5560   -9.9310  -28.3160 H   0  0  0  0  0  0  0  0  0  0  0  0
    2.3740   -7.6800  -27.2410 C   0  0  0  0  0  3  0  0  0  0  0  0
    2.0980   -7.6060  -25.7290 C   0  0  0  0  0  2  0  0  0  0  0  0
    0.6660   -7.1630  -25.4370 C   0  0  0  0  0  2  0  0  0  0  0  0
    0.3300   -5.8450  -26.1260 C   0  0  0  0  0  2  0  0  0  0  0  0
    0.6270   -5.9000  -27.6230 C   0  0  0  0  0  2  0  0  0  0  0  0
    2.0700   -6.3350  -27.8940 C   0  0  0  0  0  2  0  0  0  0  0  0
  1 14  1  0  0  0  0
  2  1  2  0  0  0  0
  3  2  1  0  0  0  0
  4  3  2  0  0  0  0
  4  5  1  0  0  0  0
  5 11  1  0  0  0  0
  6  5  2  0  0  0  0
  6  8  1  0  0  0  0
  7  6  1  0  0  0  0
  8  9  2  0  0  0  0
  9 10  1  0  0  0  0
 11  1  1  0  0  0  0
 11 10  2  0  0  0  0
 12  7  1  0  0  0  0
 13 16  1  0  0  0  0
 14 13  1  0  0  0  0
 14 15  2  0  0  0  0
 17 13  1  0  0  0  0
 18  7  1  0  0  0  0
 19 18  1  0  0  0  0
 19 20  1  0  0  0  0
 21 20  2  0  0  0  0
 22 21  1  0  0  0  0
 23 24  1  0  0  0  0
 23 22  2  0  0  0  0
 24 19  2  0  0  0  0
 25 26  1  0  0  0  0
 25 23  1  0  0  0  0
 26 29  1  0  0  0  0
 27 26  2  0  0  0  0
 28 25  1  0  0  0  0
 29 30  1  0  0  0  0
 30 31  1  0  0  0  0
 32 31  1  0  0  0  0
 33 32  1  0  0  0  0
 34 33  1  0  0  0  0
 34 29  1  0  0  0  0
M  END
>  <minimizedAffinity>
-9.57149601

$$$$
