REMARK  Name = 
REMARK  5 active torsions:
REMARK  status: ('A' for Active; 'I' for Inactive)
REMARK    1  A    between atoms: C_2  and  C_4
REMARK    2  A    between atoms: N_10  and  C_11
REMARK    3  A    between atoms: C_11  and  C_12
REMARK    4  A    between atoms: C_16  and  N_17
REMARK    5  A    between atoms: C_18  and  C_20
REMARK                            x       y       z     vdW  Elec       q    Type
REMARK                         _______ _______ _______ _____ _____    ______ ____
ROOT
ATOM      1  C   UNL     1       1.142  -2.558   0.631  0.00  0.00    +0.063 A 
ATOM      2  C   UNL     1       2.070  -2.362   1.667  0.00  0.00    +0.015 A 
ATOM      3  C   UNL     1       2.769  -3.447   2.168  0.00  0.00    +0.002 A 
ATOM      4  C   UNL     1       2.534  -4.710   1.631  0.00  0.00    +0.013 A 
ATOM      5  C   UNL     1       1.605  -4.910   0.572  0.00  0.00    +0.041 A 
ATOM      6  C   UNL     1       1.329  -6.163  -0.018  0.00  0.00    +0.130 A 
ATOM      7  N   UNL     1       1.965  -7.312   0.440  0.00  0.00    -0.324 N 
ATOM      8  N   UNL     1       0.410  -6.304  -0.985  0.00  0.00    -0.220 NA
ATOM      9  C   UNL     1      -0.198  -5.195  -1.408  0.00  0.00    +0.223 A 
ATOM     10  N   UNL     1       0.012  -3.960  -0.946  0.00  0.00    -0.235 NA
ATOM     11  C   UNL     1       0.890  -3.813   0.060  0.00  0.00    +0.088 A 
ATOM     12  H   UNL     1       2.929  -7.224   0.720  0.00  0.00    +0.148 HD
ENDROOT
BRANCH   1  14
ATOM     13  N   UNL     1       1.122  -0.401  -0.437  0.00  0.00    -0.325 N 
ATOM     14  C   UNL     1       0.385  -1.375   0.179  0.00  0.00    +0.244 C 
ATOM     15  O   UNL     1      -0.810  -1.243   0.401  0.00  0.00    -0.270 OA
ATOM     16  H   UNL     1       0.630   0.424  -0.753  0.00  0.00    +0.145 HD
ATOM     17  H   UNL     1       2.104  -0.497  -0.650  0.00  0.00    +0.145 HD
ENDBRANCH   1  14
BRANCH   7  18
ATOM     18  C   UNL     1       1.539  -8.626  -0.007  0.00  0.00    +0.138 C 
BRANCH  18  19
ATOM     19  C   UNL     1       2.140  -9.058  -1.329  0.00  0.00    -0.029 A 
ATOM     20  C   UNL     1       1.430  -9.960  -2.137  0.00  0.00    +0.005 A 
ATOM     21  C   UNL     1       1.967 -10.417  -3.341  0.00  0.00    +0.002 A 
ATOM     22  C   UNL     1       3.234  -9.997  -3.747  0.00  0.00    +0.023 A 
ATOM     23  C   UNL     1       3.977  -9.138  -2.942  0.00  0.00    +0.034 A 
ATOM     24  C   UNL     1       3.418  -8.654  -1.752  0.00  0.00    +0.028 A 
BRANCH  23  25
ATOM     25  N   UNL     1       5.215  -8.611  -3.337  0.00  0.00    -0.285 N 
ATOM     26  C   UNL     1       6.130  -9.071  -4.239  0.00  0.00    +0.220 C 
ATOM     27  O   UNL     1       6.656  -8.249  -4.999  0.00  0.00    -0.275 OA
ATOM     28  H   UNL     1       5.333  -7.625  -3.134  0.00  0.00    +0.155 HD
BRANCH  26  29
ATOM     29  C   UNL     1       6.767 -10.460  -4.080  0.00  0.00    +0.075 C 
ATOM     30  C   UNL     1       7.687 -10.433  -2.846  0.00  0.00    +0.013 C 
ATOM     31  C   UNL     1       8.523 -11.706  -2.737  0.00  0.00    +0.001 C 
ATOM     32  C   UNL     1       7.653 -12.958  -2.752  0.00  0.00    +0.000 C 
ATOM     33  C   UNL     1       6.717 -12.979  -3.958  0.00  0.00    +0.001 C 
ATOM     34  C   UNL     1       5.879 -11.700  -4.043  0.00  0.00    +0.013 C 
ENDBRANCH  26  29
ENDBRANCH  23  25
ENDBRANCH  18  19
ENDBRANCH   7  18
TORSDOF 5
