
 OpenBabel10152419133D

 40 43  0  0  1  0  0  0  0  0999 V2000
    9.3320  -12.5940   13.5720 C   0  0  0  0  0  0  0  0  0  0  0  0
   10.6070  -12.0110   13.4880 C   0  0  0  0  0  3  0  0  0  0  0  0
   10.7850  -10.6420   13.6980 C   0  0  0  0  0  3  0  0  0  0  0  0
    9.6800   -9.8140   13.9050 C   0  0  0  0  0  3  0  0  0  0  0  0
    8.4010  -10.3540   13.9300 C   0  0  0  0  0  0  0  0  0  0  0  0
    8.2610  -11.7490   13.8990 C   0  0  0  0  0  3  0  0  0  0  0  0
    7.2000   -9.6220   13.9270 N   0  0  0  0  0  0  0  0  0  0  0  0
    6.0170   -9.7330   13.2410 C   0  0  0  0  0  0  0  0  0  0  0  0
    5.1460   -8.8770   13.4020 O   0  0  0  0  0  0  0  0  0  0  0  0
    7.1260   -8.8870   14.6220 H   0  0  0  0  0  0  0  0  0  0  0  0
    5.7300  -10.8130   12.2900 C   0  0  0  0  0  0  0  0  0  0  0  0
    5.3680  -10.4460   10.9880 C   0  0  0  0  0  3  0  0  0  0  0  0
    5.0820  -11.4250   10.0240 C   0  0  0  0  0  0  0  0  0  0  0  0
    5.1430  -12.7790   10.3970 C   0  0  0  0  0  3  0  0  0  0  0  0
    5.4630  -13.1410   11.7100 C   0  0  0  0  0  3  0  0  0  0  0  0
    5.7350  -12.1560   12.6580 C   0  0  0  0  0  0  0  0  0  0  0  0
    6.0200  -12.5320   13.9120 F   0  0  0  0  0  0  0  0  0  0  0  0
    4.6760  -11.0140    8.6290 C   0  0  0  0  0  0  0  0  0  0  0  0
    5.0410   -9.7360    8.3390 F   0  0  0  0  0  0  0  0  0  0  0  0
    5.2370  -11.7960    7.6660 F   0  0  0  0  0  0  0  0  0  0  0  0
    3.3320  -11.0790    8.4240 F   0  0  0  0  0  0  0  0  0  0  0  0
    7.8950  -14.6190   13.8890 C   0  0  0  0  0  1  0  0  0  0  0  0
    9.1770  -14.0770   13.2360 C   0  0  1  0  0  3  0  0  0  0  0  0
    9.1490  -14.4490   11.8200 N   0  0  0  0  0  0  0  0  0  0  0  0
    8.9510  -15.4300   11.6400 H   0  0  0  0  0  0  0  0  0  0  0  0
    8.7810  -13.7310   10.7130 C   0  0  0  0  0  0  0  0  0  0  0  0
    7.8530  -14.4010   10.0080 N   0  0  0  0  0  0  0  0  0  0  0  0
    7.1980  -13.7180    9.0750 C   0  0  0  0  0  3  0  0  0  0  0  0
    7.3560  -12.4200    8.8070 N   0  0  0  0  0  0  0  0  0  0  0  0
    8.3440  -11.7570    9.4490 C   0  0  0  0  0  0  0  0  0  0  0  0
    8.5820  -10.3870    9.2200 C   0  0  0  0  0  0  0  0  0  0  0  0
    9.6550   -9.7190    9.8360 C   0  0  0  0  0  3  0  0  0  0  0  0
   10.5010  -10.3940   10.6990 C   0  0  0  0  0  3  0  0  0  0  0  0
   10.2500  -11.7310   10.9790 C   0  0  0  0  0  3  0  0  0  0  0  0
    9.1580  -12.4150   10.3930 C   0  0  0  0  0  0  0  0  0  0  0  0
    7.7030   -9.5370    8.3550 C   0  0  0  0  0  0  0  0  0  0  0  0
    7.7480   -9.7210    7.0060 N   0  0  0  0  0  0  0  0  0  0  0  0
    6.9310   -8.7140    8.8380 O   0  0  0  0  0  0  0  0  0  0  0  0
    7.1230   -9.1920    6.4160 H   0  0  0  0  0  0  0  0  0  0  0  0
    8.4070  -10.3700    6.5860 H   0  0  0  0  0  0  0  0  0  0  0  0
  1  6  1  0  0  0  0
  2  1  2  0  0  0  0
  2  3  1  0  0  0  0
  3  4  2  0  0  0  0
  4  5  1  0  0  0  0
  6  5  2  0  0  0  0
  7  5  1  0  0  0  0
  7 10  1  0  0  0  0
  8  9  2  0  0  0  0
  8  7  1  0  0  0  0
 11 16  1  0  0  0  0
 11  8  1  0  0  0  0
 12 11  2  0  0  0  0
 13 14  2  0  0  0  0
 13 12  1  0  0  0  0
 14 15  1  0  0  0  0
 15 16  2  0  0  0  0
 16 17  1  0  0  0  0
 18 13  1  0  0  0  0
 19 18  1  0  0  0  0
 20 18  1  0  0  0  0
 21 18  1  0  0  0  0
 23  1  1  0  0  0  0
 23 22  1  6  0  0  0
 24 23  1  0  0  0  0
 25 24  1  0  0  0  0
 26 24  1  0  0  0  0
 27 26  2  0  0  0  0
 28 27  1  0  0  0  0
 29 28  2  0  0  0  0
 29 30  1  0  0  0  0
 30 35  1  0  0  0  0
 31 30  2  0  0  0  0
 31 32  1  0  0  0  0
 32 33  2  0  0  0  0
 33 34  1  0  0  0  0
 35 26  1  0  0  0  0
 35 34  2  0  0  0  0
 36 38  2  0  0  0  0
 36 31  1  0  0  0  0
 37 36  1  0  0  0  0
 39 37  1  0  0  0  0
 40 37  1  0  0  0  0
M  END
>  <minimizedAffinity>
9.02553082

$$$$
