REMARK  Name = 
REMARK  8 active torsions:
REMARK  status: ('A' for Active; 'I' for Inactive)
REMARK    1  A    between atoms: C_1  and  C_2
REMARK    2  A    between atoms: C_2  and  N_3
REMARK    3  A    between atoms: C_2  and  C_17
REMARK    4  A    between atoms: N_3  and  C_4
REMARK    5  A    between atoms: C_9  and  C_10
REMARK    6  A    between atoms: C_21  and  N_22
REMARK    7  A    between atoms: C_23  and  C_25
REMARK    8  A    between atoms: C_27  and  C_28
REMARK                            x       y       z     vdW  Elec       q    Type
REMARK                         _______ _______ _______ _____ _____    ______ ____
ROOT
ATOM      1  C   UNL     1      -0.988  -0.836  -0.567  0.00  0.00    -0.026 A 
ATOM      2  C   UNL     1      -1.538   0.401  -0.942  0.00  0.00    +0.005 A 
ATOM      3  C   UNL     1      -2.884   0.688  -0.707  0.00  0.00    +0.002 A 
ATOM      4  C   UNL     1      -3.728  -0.289  -0.176  0.00  0.00    +0.023 A 
ATOM      5  C   UNL     1      -3.225  -1.543   0.145  0.00  0.00    +0.034 A 
ATOM      6  C   UNL     1      -1.840  -1.749   0.072  0.00  0.00    +0.028 A 
ENDROOT
BRANCH   5   7
ATOM      7  N   UNL     1      -3.990  -2.671   0.493  0.00  0.00    -0.281 N 
ATOM      8  C   UNL     1      -5.322  -2.985   0.400  0.00  0.00    +0.251 C 
ATOM      9  O   UNL     1      -5.722  -4.053   0.867  0.00  0.00    -0.270 OA
ATOM     10  H   UNL     1      -3.469  -3.476   0.823  0.00  0.00    +0.155 HD
BRANCH   8  11
ATOM     11  C   UNL     1      -6.322  -2.102  -0.210  0.00  0.00    +0.073 A 
ATOM     12  C   UNL     1      -7.421  -1.733   0.576  0.00  0.00    +0.028 A 
ATOM     13  C   UNL     1      -8.415  -0.888   0.060  0.00  0.00    +0.056 A 
ATOM     14  C   UNL     1      -8.300  -0.439  -1.267  0.00  0.00    +0.015 A 
ATOM     15  C   UNL     1      -7.224  -0.845  -2.064  0.00  0.00    +0.039 A 
ATOM     16  C   UNL     1      -6.249  -1.692  -1.539  0.00  0.00    +0.136 A 
ATOM     17  F   UNL     1      -5.240  -2.079  -2.331  0.00  0.00    -0.205 F 
BRANCH  13  18
ATOM     18  C   UNL     1      -9.603  -0.512   0.914  0.00  0.00    +0.417 C 
ATOM     19  F   UNL     1     -10.594  -1.441   0.859  0.00  0.00    -0.166 F 
ATOM     20  F   UNL     1      -9.283  -0.376   2.230  0.00  0.00    -0.166 F 
ATOM     21  F   UNL     1     -10.171   0.669   0.546  0.00  0.00    -0.166 F 
ENDBRANCH  13  18
ENDBRANCH   8  11
ENDBRANCH   5   7
BRANCH   1  23
ATOM     22  C   UNL     1       1.402  -0.298  -0.054  0.00  0.00    +0.033 C 
ATOM     23  C   UNL     1       0.464  -1.138  -0.936  0.00  0.00    +0.099 C 
BRANCH  23  24
ATOM     24  N   UNL     1       0.905  -2.532  -0.857  0.00  0.00    -0.322 N 
ATOM     25  H   UNL     1       1.610  -2.717  -0.149  0.00  0.00    +0.148 HD
BRANCH  24  26
ATOM     26  C   UNL     1       0.231  -3.699  -1.102  0.00  0.00    +0.130 A 
ATOM     27  N   UNL     1       0.569  -4.633  -0.197  0.00  0.00    -0.220 NA
ATOM     28  C   UNL     1      -0.202  -5.713  -0.130  0.00  0.00    +0.223 A 
ATOM     29  N   UNL     1      -1.301  -5.929  -0.856  0.00  0.00    -0.235 NA
ATOM     30  C   UNL     1      -1.604  -5.039  -1.827  0.00  0.00    +0.088 A 
ATOM     31  C   UNL     1      -2.743  -5.195  -2.642  0.00  0.00    +0.063 A 
ATOM     32  C   UNL     1      -3.014  -4.306  -3.697  0.00  0.00    +0.015 A 
ATOM     33  C   UNL     1      -2.168  -3.240  -3.953  0.00  0.00    +0.002 A 
ATOM     34  C   UNL     1      -1.070  -3.038  -3.127  0.00  0.00    +0.013 A 
ATOM     35  C   UNL     1      -0.795  -3.904  -2.041  0.00  0.00    +0.041 A 
BRANCH  31  36
ATOM     36  C   UNL     1      -3.761  -6.272  -2.428  0.00  0.00    +0.244 C 
ATOM     37  N   UNL     1      -3.708  -6.994  -1.273  0.00  0.00    -0.325 N 
ATOM     38  O   UNL     1      -4.648  -6.488  -3.248  0.00  0.00    -0.270 OA
ATOM     39  H   UNL     1      -4.420  -7.686  -1.093  0.00  0.00    +0.145 HD
ATOM     40  H   UNL     1      -2.960  -6.855  -0.601  0.00  0.00    +0.145 HD
ENDBRANCH  31  36
ENDBRANCH  24  26
ENDBRANCH  23  24
ENDBRANCH   1  23
TORSDOF 7
