REMARK  Name = 
REMARK  5 active torsions:
REMARK  status: ('A' for Active; 'I' for Inactive)
REMARK    1  A    between atoms: C_2  and  C_4
REMARK    2  A    between atoms: N_10  and  C_11
REMARK    3  A    between atoms: C_11  and  C_12
REMARK    4  A    between atoms: C_16  and  N_17
REMARK    5  A    between atoms: C_18  and  C_20
REMARK                            x       y       z     vdW  Elec       q    Type
REMARK                         _______ _______ _______ _____ _____    ______ ____
ROOT
ATOM      1  C   UNL     1       1.007   0.197  -2.693  0.00  0.00    +0.063 A 
ATOM      2  C   UNL     1       2.209  -0.497  -2.900  0.00  0.00    +0.015 A 
ATOM      3  C   UNL     1       2.910  -0.311  -4.080  0.00  0.00    +0.002 A 
ATOM      4  C   UNL     1       2.396   0.554  -5.042  0.00  0.00    +0.013 A 
ATOM      5  C   UNL     1       1.167   1.244  -4.847  0.00  0.00    +0.041 A 
ATOM      6  C   UNL     1       0.578   2.111  -5.794  0.00  0.00    +0.130 A 
ATOM      7  N   UNL     1       1.210   2.360  -7.009  0.00  0.00    -0.324 N 
ATOM      8  N   UNL     1      -0.560   2.774  -5.537  0.00  0.00    -0.220 NA
ATOM      9  C   UNL     1      -1.127   2.565  -4.348  0.00  0.00    +0.223 A 
ATOM     10  N   UNL     1      -0.669   1.756  -3.393  0.00  0.00    -0.235 NA
ATOM     11  C   UNL     1       0.464   1.077  -3.640  0.00  0.00    +0.088 A 
ATOM     12  H   UNL     1       1.736   1.596  -7.404  0.00  0.00    +0.148 HD
ENDROOT
BRANCH   1  14
ATOM     13  N   UNL     1       0.976   0.276  -0.287  0.00  0.00    -0.325 N 
ATOM     14  C   UNL     1       0.293  -0.055  -1.426  0.00  0.00    +0.244 C 
ATOM     15  O   UNL     1      -0.810  -0.582  -1.388  0.00  0.00    -0.270 OA
ATOM     16  H   UNL     1       0.512   0.112   0.597  0.00  0.00    +0.145 HD
ATOM     17  H   UNL     1       1.875   0.735  -0.291  0.00  0.00    +0.145 HD
ENDBRANCH   1  14
BRANCH   7  18
ATOM     18  C   UNL     1       0.616   3.257  -7.981  0.00  0.00    +0.138 C 
BRANCH  18  19
ATOM     19  C   UNL     1       1.709   4.080  -8.623  0.00  0.00    -0.029 A 
ATOM     20  C   UNL     1       2.588   3.523  -9.556  0.00  0.00    +0.005 A 
ATOM     21  C   UNL     1       3.602   4.303 -10.111  0.00  0.00    +0.002 A 
ATOM     22  C   UNL     1       3.758   5.641  -9.732  0.00  0.00    +0.023 A 
ATOM     23  C   UNL     1       2.908   6.210  -8.787  0.00  0.00    +0.034 A 
ATOM     24  C   UNL     1       1.877   5.425  -8.254  0.00  0.00    +0.028 A 
BRANCH  23  25
ATOM     25  N   UNL     1       2.960   7.543  -8.349  0.00  0.00    -0.285 N 
ATOM     26  C   UNL     1       3.924   8.506  -8.324  0.00  0.00    +0.220 C 
ATOM     27  O   UNL     1       3.555   9.648  -8.026  0.00  0.00    -0.275 OA
ATOM     28  H   UNL     1       2.102   7.904  -7.945  0.00  0.00    +0.155 HD
BRANCH  26  29
ATOM     29  C   UNL     1       5.401   8.190  -8.552  0.00  0.00    +0.075 C 
ATOM     30  C   UNL     1       6.239   9.485  -8.537  0.00  0.00    +0.013 C 
ATOM     31  C   UNL     1       7.729   9.203  -8.705  0.00  0.00    +0.001 C 
ATOM     32  C   UNL     1       8.236   8.223  -7.652  0.00  0.00    +0.000 C 
ATOM     33  C   UNL     1       7.414   6.940  -7.643  0.00  0.00    +0.001 C 
ATOM     34  C   UNL     1       5.924   7.226  -7.476  0.00  0.00    +0.013 C 
ENDBRANCH  26  29
ENDBRANCH  23  25
ENDBRANCH  18  19
ENDBRANCH   7  18
TORSDOF 5
