
 OpenBabel10152419413D

 39 42  0  0  1  0  0  0  0  0999 V2000
    1.8470  -11.8950  -25.7930 C   0  0  0  0  0  0  0  0  0  0  0  0
    0.6930  -11.5540  -26.4990 C   0  0  0  0  0  3  0  0  0  0  0  0
   -0.4360  -11.1160  -25.8280 C   0  0  0  0  0  3  0  0  0  0  0  0
   -0.5210  -11.2850  -24.4590 C   0  0  0  0  0  3  0  0  0  0  0  0
    0.4170  -12.0630  -23.8060 C   0  0  0  0  0  0  0  0  0  0  0  0
    1.6610  -12.2380  -24.4340 C   0  0  0  0  0  3  0  0  0  0  0  0
    0.1790  -12.6800  -22.5630 N   0  0  0  0  0  0  0  0  0  0  0  0
   -0.4770  -12.2430  -21.4200 C   0  0  0  0  0  0  0  0  0  0  0  0
   -0.3970  -12.9590  -20.4180 O   0  0  0  0  0  0  0  0  0  0  0  0
    0.4800  -13.6420  -22.4630 H   0  0  0  0  0  0  0  0  0  0  0  0
   -1.1930  -10.9930  -21.3770 C   0  0  2  0  0  3  0  0  0  0  0  0
   -2.2350  -10.4500  -22.1120 C   0  0  0  0  0  2  0  0  0  0  0  0
   -2.1590   -9.0500  -21.8670 C   0  0  1  0  0  3  0  0  0  0  0  0
   -1.3740   -8.8060  -20.8060 N   0  0  0  0  0  2  0  0  0  0  0  0
   -0.8870  -10.0140  -20.4720 N   0  0  0  0  0  0  0  0  0  0  0  0
   -0.2410  -10.0810  -19.6910 H   0  0  0  0  0  0  0  0  0  0  0  0
   -2.6800   -7.8960  -22.7170 C   0  0  0  0  0  0  0  0  0  0  0  0
   -4.1670   -7.6210  -22.4360 C   0  0  0  0  0  1  0  0  0  0  0  0
   -1.8720   -6.6170  -22.3860 C   0  0  0  0  0  1  0  0  0  0  0  0
   -2.5240   -8.1670  -24.2280 C   0  0  0  0  0  1  0  0  0  0  0  0
    3.2460  -11.9290  -27.9130 C   0  0  0  0  0  1  0  0  0  0  0  0
    3.2580  -11.7540  -26.3850 C   0  0  1  0  0  3  0  0  0  0  0  0
    4.0130  -10.5240  -26.1030 N   0  0  0  0  0  0  0  0  0  0  0  0
    5.0040  -10.6700  -25.9260 H   0  0  0  0  0  0  0  0  0  0  0  0
    3.8550   -9.2260  -26.5120 C   0  0  0  0  0  0  0  0  0  0  0  0
    4.6720   -8.9610  -27.5440 N   0  0  0  0  0  0  0  0  0  0  0  0
    4.3790   -7.8960  -28.2830 C   0  0  0  0  0  3  0  0  0  0  0  0
    3.3170   -7.1050  -28.1190 N   0  0  0  0  0  0  0  0  0  0  0  0
    2.5430   -7.3090  -27.0300 C   0  0  0  0  0  0  0  0  0  0  0  0
    1.3620   -6.5710  -26.8140 C   0  0  0  0  0  0  0  0  0  0  0  0
    0.6120   -6.7230  -25.6340 C   0  0  0  0  0  3  0  0  0  0  0  0
    1.0020   -7.6360  -24.6650 C   0  0  0  0  0  3  0  0  0  0  0  0
    2.1050   -8.4440  -24.9060 C   0  0  0  0  0  3  0  0  0  0  0  0
    2.8560   -8.3240  -26.1020 C   0  0  0  0  0  0  0  0  0  0  0  0
    0.7640   -5.6700  -27.8510 C   0  0  0  0  0  0  0  0  0  0  0  0
    1.5880   -4.8160  -28.5230 N   0  0  0  0  0  0  0  0  0  0  0  0
   -0.4250   -5.7300  -28.1450 O   0  0  0  0  0  0  0  0  0  0  0  0
    1.2040   -4.2300  -29.2490 H   0  0  0  0  0  0  0  0  0  0  0  0
    2.5670   -4.7230  -28.2660 H   0  0  0  0  0  0  0  0  0  0  0  0
  1  6  1  0  0  0  0
  2  3  1  0  0  0  0
  2  1  2  0  0  0  0
  3  4  2  0  0  0  0
  4  5  1  0  0  0  0
  5  7  1  0  0  0  0
  6  5  2  0  0  0  0
  7 10  1  0  0  0  0
  7  8  1  0  0  0  0
  8  9  2  0  0  0  0
 11  8  1  6  0  0  0
 11 15  1  0  0  0  0
 12 13  1  0  0  0  0
 12 11  1  0  0  0  0
 13 17  1  6  0  0  0
 13 14  1  0  0  0  0
 14 15  1  0  0  0  0
 15 16  1  0  0  0  0
 17 18  1  0  0  0  0
 17 19  1  0  0  0  0
 20 17  1  0  0  0  0
 22 21  1  6  0  0  0
 22 23  1  0  0  0  0
 22  1  1  0  0  0  0
 23 24  1  0  0  0  0
 25 23  1  0  0  0  0
 25 34  1  0  0  0  0
 26 25  2  0  0  0  0
 27 28  2  0  0  0  0
 27 26  1  0  0  0  0
 28 29  1  0  0  0  0
 29 30  2  0  0  0  0
 29 34  1  0  0  0  0
 30 31  1  0  0  0  0
 31 32  2  0  0  0  0
 33 32  1  0  0  0  0
 34 33  2  0  0  0  0
 35 30  1  0  0  0  0
 36 39  1  0  0  0  0
 36 35  1  0  0  0  0
 37 35  2  0  0  0  0
 38 36  1  0  0  0  0
M  END
>  <minimizedAffinity>
-8.83366108

$$$$
