
 OpenBabel10152419413D

 39 42  0  0  1  0  0  0  0  0999 V2000
    2.6720  -10.9230  -25.2030 C   0  0  0  0  0  0  0  0  0  0  0  0
    2.4040   -9.9560  -24.2350 C   0  0  0  0  0  3  0  0  0  0  0  0
    2.0270   -8.6760  -24.6070 C   0  0  0  0  0  3  0  0  0  0  0  0
    2.1910   -8.2740  -25.9190 C   0  0  0  0  0  3  0  0  0  0  0  0
    2.9090   -9.0690  -26.7930 C   0  0  0  0  0  0  0  0  0  0  0  0
    3.0160  -10.4350  -26.4840 C   0  0  0  0  0  3  0  0  0  0  0  0
    3.5300   -8.5740  -27.9560 N   0  0  0  0  0  0  0  0  0  0  0  0
    3.3350   -7.4110  -28.6890 C   0  0  0  0  0  0  0  0  0  0  0  0
    3.9370   -7.3160  -29.7620 O   0  0  0  0  0  0  0  0  0  0  0  0
    4.3070   -9.1090  -28.3250 H   0  0  0  0  0  0  0  0  0  0  0  0
    2.4430   -6.3670  -28.2500 C   0  0  2  0  0  3  0  0  0  0  0  0
    1.9060   -6.0070  -27.0250 C   0  0  0  0  0  2  0  0  0  0  0  0
    0.7800   -5.2000  -27.3460 C   0  0  1  0  0  3  0  0  0  0  0  0
    0.8360   -4.8130  -28.6300 N   0  0  0  0  0  2  0  0  0  0  0  0
    1.9110   -5.4550  -29.1200 N   0  0  0  0  0  0  0  0  0  0  0  0
    2.1500   -5.3300  -30.0990 H   0  0  0  0  0  0  0  0  0  0  0  0
   -0.4640   -4.9090  -26.5120 C   0  0  0  0  0  0  0  0  0  0  0  0
   -0.7760   -3.4030  -26.4800 C   0  0  0  0  0  1  0  0  0  0  0  0
   -1.6750   -5.6490  -27.1310 C   0  0  0  0  0  1  0  0  0  0  0  0
   -0.3170   -5.3950  -25.0550 C   0  0  0  0  0  1  0  0  0  0  0  0
    3.3860  -12.9590  -23.8630 C   0  0  0  0  0  1  0  0  0  0  0  0
    2.4550  -12.4250  -24.9630 C   0  0  1  0  0  3  0  0  0  0  0  0
    1.0980  -12.8890  -24.6360 N   0  0  0  0  0  0  0  0  0  0  0  0
    1.0370  -13.8770  -24.4040 H   0  0  0  0  0  0  0  0  0  0  0  0
    0.0170  -12.2660  -24.0700 C   0  0  0  0  0  0  0  0  0  0  0  0
   -0.1650  -12.7010  -22.8120 N   0  0  0  0  0  0  0  0  0  0  0  0
   -0.9130  -11.9430  -22.0170 C   0  0  0  0  0  3  0  0  0  0  0  0
   -1.4480  -10.7660  -22.3460 N   0  0  0  0  0  0  0  0  0  0  0  0
   -1.3480  -10.3660  -23.6330 C   0  0  0  0  0  0  0  0  0  0  0  0
   -1.8190   -9.1070  -24.0550 C   0  0  0  0  0  0  0  0  0  0  0  0
   -1.7960   -8.7350  -25.4110 C   0  0  0  0  0  3  0  0  0  0  0  0
   -1.2720   -9.5930  -26.3660 C   0  0  0  0  0  3  0  0  0  0  0  0
   -0.7090  -10.7950  -25.9570 C   0  0  0  0  0  3  0  0  0  0  0  0
   -0.6990  -11.1730  -24.5910 C   0  0  0  0  0  0  0  0  0  0  0  0
   -2.2670   -8.0430  -23.0990 C   0  0  0  0  0  0  0  0  0  0  0  0
   -1.3720   -7.5720  -22.1850 N   0  0  0  0  0  0  0  0  0  0  0  0
   -3.3900   -7.5530  -23.1630 O   0  0  0  0  0  0  0  0  0  0  0  0
   -1.6500   -6.8310  -21.5590 H   0  0  0  0  0  0  0  0  0  0  0  0
   -0.4520   -7.9930  -22.0900 H   0  0  0  0  0  0  0  0  0  0  0  0
  1 22  1  0  0  0  0
  1  2  1  0  0  0  0
  3  2  2  0  0  0  0
  4  3  1  0  0  0  0
  5  6  1  0  0  0  0
  5  4  2  0  0  0  0
  6  1  2  0  0  0  0
  7  5  1  0  0  0  0
  8  7  1  0  0  0  0
  9  8  2  0  0  0  0
 10  7  1  0  0  0  0
 11  8  1  6  0  0  0
 11 12  1  0  0  0  0
 13 12  1  0  0  0  0
 13 17  1  6  0  0  0
 14 13  1  0  0  0  0
 15 14  1  0  0  0  0
 15 11  1  0  0  0  0
 16 15  1  0  0  0  0
 17 18  1  0  0  0  0
 17 20  1  0  0  0  0
 19 17  1  0  0  0  0
 22 23  1  0  0  0  0
 22 21  1  1  0  0  0
 23 24  1  0  0  0  0
 23 25  1  0  0  0  0
 25 26  1  0  0  0  0
 26 27  2  0  0  0  0
 28 27  1  0  0  0  0
 29 28  2  0  0  0  0
 30 29  1  0  0  0  0
 30 35  1  0  0  0  0
 31 30  2  0  0  0  0
 32 33  2  0  0  0  0
 32 31  1  0  0  0  0
 33 34  1  0  0  0  0
 34 25  2  0  0  0  0
 34 29  1  0  0  0  0
 35 36  1  0  0  0  0
 36 39  1  0  0  0  0
 36 38  1  0  0  0  0
 37 35  2  0  0  0  0
M  END
>  <minimizedAffinity>
-8.05523968

$$$$
