REMARK  Name = 
REMARK  11 active torsions:
REMARK  status: ('A' for Active; 'I' for Inactive)
REMARK    1  A    between atoms: C_1  and  C_2
REMARK    2  A    between atoms: C_2  and  N_3
REMARK    3  A    between atoms: C_2  and  C_17
REMARK    4  A    between atoms: N_3  and  C_4
REMARK    5  A    between atoms: C_9  and  C_10
REMARK    6  A    between atoms: C_21  and  N_22
REMARK    7  A    between atoms: C_23  and  C_25
REMARK    8  A    between atoms: C_27  and  C_28
REMARK    9  A    between atoms: C_28  and  C_29
REMARK   10  A    between atoms: C_28  and  C_30
REMARK   11  A    between atoms: C_28  and  C_31
REMARK                            x       y       z     vdW  Elec       q    Type
REMARK                         _______ _______ _______ _____ _____    ______ ____
ROOT
ATOM      1  C   UNL     1      -1.190   1.137   0.253  0.00  0.00    -0.026 A 
ATOM      2  C   UNL     1      -2.024   2.100  -0.314  0.00  0.00    +0.005 A 
ATOM      3  C   UNL     1      -3.289   2.325   0.203  0.00  0.00    +0.002 A 
ATOM      4  C   UNL     1      -3.833   1.413   1.087  0.00  0.00    +0.023 A 
ATOM      5  C   UNL     1      -3.206   0.197   1.288  0.00  0.00    +0.034 A 
ATOM      6  C   UNL     1      -1.835   0.122   0.996  0.00  0.00    +0.028 A 
ENDROOT
BRANCH   5   7
ATOM      7  N   UNL     1      -3.875  -0.949   1.760  0.00  0.00    -0.280 N 
ATOM      8  C   UNL     1      -5.224  -1.267   1.847  0.00  0.00    +0.266 C 
ATOM      9  O   UNL     1      -5.519  -2.302   2.450  0.00  0.00    -0.268 OA
ATOM     10  H   UNL     1      -3.299  -1.731   2.047  0.00  0.00    +0.155 HD
BRANCH   8  11
ATOM     11  C   UNL     1      -6.250  -0.417   1.297  0.00  0.00    +0.121 A 
ATOM     12  C   UNL     1      -6.369   0.324   0.132  0.00  0.00    +0.058 A 
ATOM     13  C   UNL     1      -7.398   1.267   0.407  0.00  0.00    +0.069 A 
ATOM     14  N   UNL     1      -8.083   0.902   1.502  0.00  0.00    -0.178 NA
ATOM     15  N   UNL     1      -7.424  -0.178   1.957  0.00  0.00    -0.272 N 
ATOM     16  H   UNL     1      -7.753  -0.629   2.805  0.00  0.00    +0.189 HD
BRANCH  13  17
ATOM     17  C   UNL     1      -7.661   2.621  -0.246  0.00  0.00    +0.006 C 
ATOM     18  C   UNL     1      -9.153   2.802  -0.576  0.00  0.00    +0.017 C 
ATOM     19  C   UNL     1      -7.233   3.746   0.728  0.00  0.00    +0.017 C 
ATOM     20  C   UNL     1      -6.860   2.805  -1.552  0.00  0.00    +0.017 C 
ENDBRANCH  13  17
ENDBRANCH   8  11
ENDBRANCH   5   7
BRANCH   1  22
ATOM     21  C   UNL     1       0.988  -0.077  -0.231  0.00  0.00    +0.033 C 
ATOM     22  C   UNL     1       0.343   1.242   0.226  0.00  0.00    +0.099 C 
BRANCH  22  23
ATOM     23  N   UNL     1       0.954   2.315  -0.573  0.00  0.00    -0.322 N 
ATOM     24  H   UNL     1       1.478   1.990  -1.382  0.00  0.00    +0.148 HD
BRANCH  23  25
ATOM     25  C   UNL     1       0.589   3.613  -0.814  0.00  0.00    +0.130 A 
ATOM     26  N   UNL     1       0.836   3.936  -2.094  0.00  0.00    -0.220 NA
ATOM     27  C   UNL     1       0.207   5.003  -2.576  0.00  0.00    +0.223 A 
ATOM     28  N   UNL     1      -0.686   5.742  -1.915  0.00  0.00    -0.235 NA
ATOM     29  C   UNL     1      -0.871   5.481  -0.602  0.00  0.00    +0.088 A 
ATOM     30  C   UNL     1      -1.844   6.161   0.157  0.00  0.00    +0.063 A 
ATOM     31  C   UNL     1      -1.968   5.951   1.542  0.00  0.00    +0.015 A 
ATOM     32  C   UNL     1      -1.152   5.036   2.190  0.00  0.00    +0.002 A 
ATOM     33  C   UNL     1      -0.257   4.282   1.442  0.00  0.00    +0.013 A 
ATOM     34  C   UNL     1      -0.139   4.461   0.041  0.00  0.00    +0.041 A 
BRANCH  30  35
ATOM     35  C   UNL     1      -2.876   7.057  -0.458  0.00  0.00    +0.244 C 
ATOM     36  N   UNL     1      -2.985   7.085  -1.817  0.00  0.00    -0.325 N 
ATOM     37  O   UNL     1      -3.653   7.709   0.231  0.00  0.00    -0.270 OA
ATOM     38  H   UNL     1      -3.700   7.657  -2.242  0.00  0.00    +0.145 HD
ATOM     39  H   UNL     1      -2.325   6.584  -2.405  0.00  0.00    +0.145 HD
ENDBRANCH  30  35
ENDBRANCH  23  25
ENDBRANCH  22  23
ENDBRANCH   1  22
TORSDOF 7
