REMARK  Name = 
REMARK  6 active torsions:
REMARK  status: ('A' for Active; 'I' for Inactive)
REMARK    1  A    between atoms: C_3  and  C_5
REMARK    2  A    between atoms: C_5  and  C_6
REMARK    3  A    between atoms: C_6  and  C_7
REMARK    4  A    between atoms: C_11  and  N_12
REMARK    5  A    between atoms: C_21  and  O_22
REMARK    6  A    between atoms: O_22  and  C_23
REMARK                            x       y       z     vdW  Elec       q    Type
REMARK                         _______ _______ _______ _____ _____    ______ ____
ROOT
ATOM      1 CL   UNL     1       1.073   0.056   0.039  0.00  0.00    -0.145 Cl
ATOM      2  H   UNL     1       2.403   0.056   0.039  0.00  0.00    +0.145 HD
ENDROOT
TORSDOF 0
REMARK  Name = 
REMARK  6 active torsions:
REMARK  status: ('A' for Active; 'I' for Inactive)
REMARK    1  A    between atoms: C_3  and  C_5
REMARK    2  A    between atoms: C_5  and  C_6
REMARK    3  A    between atoms: C_6  and  C_7
REMARK    4  A    between atoms: C_11  and  N_12
REMARK    5  A    between atoms: C_21  and  O_22
REMARK    6  A    between atoms: O_22  and  C_23
REMARK                            x       y       z     vdW  Elec       q    Type
REMARK                         _______ _______ _______ _____ _____    ______ ____
ROOT
ATOM      1  C   UNL     1       3.126  -1.010  -0.847  0.00  0.00    +0.016 C 
ATOM      2  C   UNL     1       4.647  -0.844  -0.741  0.00  0.00    +0.017 C 
ATOM      3  C   UNL     1       5.389  -1.915  -1.532  0.00  0.00    +0.045 C 
ATOM      4  C   UNL     1       4.978  -3.311  -1.091  0.00  0.00    +0.174 C 
ATOM      5  C   UNL     1       3.468  -3.474  -1.215  0.00  0.00    +0.045 C 
ATOM      6  C   UNL     1       2.724  -2.417  -0.411  0.00  0.00    +0.017 C 
ENDROOT
BRANCH   1   8
ATOM      7  O   UNL     1       3.313  -1.462  -3.206  0.00  0.00    -0.549 OA
ATOM      8  C   UNL     1       2.767  -0.755  -2.302  0.00  0.00    +0.048 C 
ATOM      9  O   UNL     1       1.857   0.275  -2.659  0.00  0.00    -0.549 OA
ENDBRANCH   1   8
BRANCH   1  10
ATOM     10  C   UNL     1       2.366  -0.022   0.022  0.00  0.00    +0.068 C 
BRANCH  10  11
ATOM     11  C   UNL     1       2.548   1.468  -0.214  0.00  0.00    +0.044 A 
ATOM     12  C   UNL     1       2.197   1.992  -1.443  0.00  0.00    +0.023 A 
ATOM     13  C   UNL     1       2.379   3.356  -1.686  0.00  0.00    +0.005 A 
ATOM     14  C   UNL     1       2.895   4.130  -0.655  0.00  0.00    +0.044 A 
ATOM     15  C   UNL     1       3.195   3.532   0.548  0.00  0.00    +0.125 A 
ATOM     16  N   UNL     1       3.043   2.224   0.778  0.00  0.00    -0.237 NA
BRANCH  15  17
ATOM     17  N   UNL     1       3.710   4.375   1.636  0.00  0.00    -0.279 N 
ATOM     18  C   UNL     1       4.042   3.775   2.936  0.00  0.00    +0.163 A 
ATOM     19  N   UNL     1       4.947   2.843   3.014  0.00  0.00    -0.233 NA
ATOM     20  C   UNL     1       5.208   2.466   4.321  0.00  0.00    +0.120 A 
ATOM     21  C   UNL     1       4.446   3.131   5.246  0.00  0.00    +0.068 A 
ATOM     22  S   UNL     1       3.389   4.273   4.459  0.00  0.00    -0.061 S 
ATOM     23  H   UNL     1       3.836   5.376   1.489  0.00  0.00    +0.155 HD
ENDBRANCH  15  17
ENDBRANCH  10  11
ENDBRANCH   1  10
BRANCH   4  24
ATOM     24  O   UNL     1       5.357  -3.502   0.264  0.00  0.00    -0.489 OA
BRANCH  24  25
ATOM     25  C   UNL     1       4.834  -2.652   1.275  0.00  0.00    +0.122 A 
ATOM     26  C   UNL     1       3.456  -2.645   1.421  0.00  0.00    +0.046 A 
ATOM     27  C   UNL     1       2.845  -1.738   2.279  0.00  0.00    +0.005 A 
ATOM     28  C   UNL     1       3.618  -0.817   2.979  0.00  0.00    +0.020 A 
ATOM     29  C   UNL     1       4.990  -0.819   2.795  0.00  0.00    +0.044 A 
ATOM     30 CL   UNL     1       5.944   0.347   3.661  0.00  0.00    -0.083 Cl
ATOM     31  C   UNL     1       5.623  -1.741   1.975  0.00  0.00    +0.065 A 
ENDBRANCH  24  25
ENDBRANCH   4  24
TORSDOF 6
