REMARK  Name = 
REMARK  9 active torsions:
REMARK  status: ('A' for Active; 'I' for Inactive)
REMARK    1  A    between atoms: C_1  and  O_2
REMARK    2  A    between atoms: O_2  and  C_3
REMARK    3  A    between atoms: C_6  and  C_7
REMARK    4  A    between atoms: N_9  and  C_10
REMARK    5  A    between atoms: C_12  and  C_13
REMARK    6  A    between atoms: C_13  and  C_14
REMARK    7  A    between atoms: C_13  and  N_15
REMARK    8  A    between atoms: N_15  and  C_16
REMARK    9  A    between atoms: C_21  and  C_22
REMARK                            x       y       z     vdW  Elec       q    Type
REMARK                         _______ _______ _______ _____ _____    ______ ____
ROOT
ATOM      1  C   UNL     1       4.265   4.401  -3.822  0.00  0.00    +0.070 A 
ATOM      2  C   UNL     1       5.141   5.256  -3.147  0.00  0.00    +0.031 A 
ATOM      3  C   UNL     1       6.242   4.743  -2.433  0.00  0.00    -0.026 A 
ATOM      4  C   UNL     1       6.491   3.360  -2.480  0.00  0.00    +0.008 A 
ATOM      5  C   UNL     1       5.669   2.516  -3.228  0.00  0.00    +0.040 A 
ATOM      6  C   UNL     1       4.565   3.037  -3.893  0.00  0.00    +0.145 A 
ATOM      7  F   UNL     1       3.804   2.204  -4.617  0.00  0.00    -0.204 F 
ENDROOT
BRANCH   1  10
ATOM      8  C   UNL     1       1.824   4.443  -4.445  0.00  0.00    +0.248 C 
ATOM      9  O   UNL     1       0.998   4.976  -5.185  0.00  0.00    -0.270 OA
ATOM     10  N   UNL     1       3.096   4.972  -4.356  0.00  0.00    -0.279 N 
ATOM     11  H   UNL     1       3.147   5.924  -4.699  0.00  0.00    +0.155 HD
BRANCH   8  15
ATOM     12  C   UNL     1       0.503   1.193  -1.942  0.00  0.00    +0.155 A 
ATOM     13  C   UNL     1      -0.069   1.418  -3.199  0.00  0.00    +0.049 A 
ATOM     14  C   UNL     1       0.368   2.475  -4.006  0.00  0.00    +0.017 A 
ATOM     15  C   UNL     1       1.381   3.330  -3.557  0.00  0.00    +0.040 A 
ATOM     16  C   UNL     1       1.890   3.159  -2.265  0.00  0.00    +0.055 A 
ATOM     17  C   UNL     1       1.479   2.080  -1.486  0.00  0.00    +0.165 A 
ATOM     18  F   UNL     1       2.058   1.936  -0.285  0.00  0.00    -0.202 F 
BRANCH  12  20
ATOM     19  C   UNL     1       0.669  -0.270  -0.076  0.00  0.00    +0.277 C 
ATOM     20  O   UNL     1       0.008   0.103  -1.280  0.00  0.00    -0.492 OA
ENDBRANCH  12  20
ENDBRANCH   8  15
ENDBRANCH   1  10
BRANCH   3  21
ATOM     21  C   UNL     1       7.157   5.656  -1.620  0.00  0.00    +0.099 C 
ATOM     22  C   UNL     1       7.837   6.666  -2.550  0.00  0.00    +0.033 C 
BRANCH  21  23
ATOM     23  N   UNL     1       6.396   6.379  -0.609  0.00  0.00    -0.322 N 
ATOM     24  H   UNL     1       5.409   6.501  -0.819  0.00  0.00    +0.148 HD
BRANCH  23  25
ATOM     25  C   UNL     1       6.490   6.170   0.751  0.00  0.00    +0.127 A 
ATOM     26  N   UNL     1       5.267   6.070   1.314  0.00  0.00    -0.240 NA
ATOM     27  C   UNL     1       5.190   5.810   2.630  0.00  0.00    +0.113 A 
ATOM     28  C   UNL     1       6.292   5.663   3.445  0.00  0.00    +0.029 A 
ATOM     29  C   UNL     1       7.581   5.835   2.908  0.00  0.00    -0.001 A 
ATOM     30  C   UNL     1       8.774   5.747   3.683  0.00  0.00    +0.044 A 
ATOM     31  C   UNL     1      10.037   5.898   3.096  0.00  0.00    +0.013 A 
ATOM     32  C   UNL     1      10.141   6.192   1.748  0.00  0.00    +0.001 A 
ATOM     33  C   UNL     1       8.983   6.307   0.981  0.00  0.00    +0.012 A 
ATOM     34  C   UNL     1       7.686   6.098   1.514  0.00  0.00    +0.023 A 
BRANCH  30  35
ATOM     35  C   UNL     1       8.798   5.488   5.145  0.00  0.00    +0.242 C 
ATOM     36  N   UNL     1       8.036   6.301   5.935  0.00  0.00    -0.325 N 
ATOM     37  O   UNL     1       9.528   4.632   5.627  0.00  0.00    -0.270 OA
ATOM     38  H   UNL     1       8.084   6.155   6.935  0.00  0.00    +0.145 HD
ATOM     39  H   UNL     1       7.502   7.081   5.580  0.00  0.00    +0.145 HD
ENDBRANCH  30  35
ENDBRANCH  23  25
ENDBRANCH  21  23
ENDBRANCH   3  21
TORSDOF 7
