
 OpenBabel10152418203D

 35 38  0  0  1  0  0  0  0  0999 V2000
   -1.2650   -9.5460  -21.3900 C   0  0  0  0  0  1  0  0  0  0  0  0
   -1.3400   -8.9480  -22.7990 C   0  0  2  0  0  3  0  0  0  0  0  0
   -0.9690  -10.0200  -23.8210 C   0  0  0  0  0  0  0  0  0  0  0  0
   -1.9570  -10.4480  -24.7240 C   0  0  0  0  0  3  0  0  0  0  0  0
   -1.6460  -11.3320  -25.7530 C   0  0  0  0  0  3  0  0  0  0  0  0
   -0.3330  -11.7680  -25.9210 C   0  0  0  0  0  3  0  0  0  0  0  0
    0.6740  -11.3870  -25.0300 C   0  0  0  0  0  0  0  0  0  0  0  0
    0.3170  -10.5800  -23.9380 C   0  0  0  0  0  3  0  0  0  0  0  0
    2.0300  -11.6920  -25.2320 N   0  0  0  0  0  0  0  0  0  0  0  0
    3.0260  -11.1130  -26.0190 C   0  0  0  0  0  0  0  0  0  0  0  0
    3.0190   -9.7750  -26.3910 C   0  0  0  0  0  3  0  0  0  0  0  0
    3.9950   -9.3070  -27.2730 C   0  0  0  0  0  0  0  0  0  0  0  0
    4.9740  -10.1770  -27.7370 C   0  0  0  0  0  3  0  0  0  0  0  0
    4.9460  -11.4750  -27.2690 C   0  0  0  0  0  3  0  0  0  0  0  0
    4.0060  -11.9490  -26.4220 N   0  0  0  0  0  0  0  0  0  0  0  0
    2.3180  -12.6140  -24.9290 H   0  0  0  0  0  0  0  0  0  0  0  0
    3.9630   -7.9510  -27.7270 C   0  0  0  0  0  0  0  0  0  0  0  0
    3.8980   -6.8510  -28.0940 N   0  0  0  0  0  0  0  0  0  0  0  0
   -0.5890   -7.6850  -22.8210 N   0  0  0  0  0  0  0  0  0  0  0  0
    0.4110   -7.7950  -22.6690 H   0  0  0  0  0  0  0  0  0  0  0  0
   -0.7730   -6.5990  -23.6420 C   0  0  0  0  0  0  0  0  0  0  0  0
   -1.1050   -5.5060  -22.9360 N   0  0  0  0  0  0  0  0  0  0  0  0
   -1.0330   -4.3420  -23.5740 C   0  0  0  0  0  3  0  0  0  0  0  0
   -0.6270   -4.1670  -24.8350 N   0  0  0  0  0  0  0  0  0  0  0  0
   -0.3580   -5.2690  -25.5750 C   0  0  0  0  0  0  0  0  0  0  0  0
    0.1130   -5.1890  -26.9000 C   0  0  0  0  0  0  0  0  0  0  0  0
    0.3070   -6.3450  -27.6810 C   0  0  0  0  0  3  0  0  0  0  0  0
    0.0460   -7.6010  -27.1570 C   0  0  0  0  0  3  0  0  0  0  0  0
   -0.3550   -7.7040  -25.8330 C   0  0  0  0  0  3  0  0  0  0  0  0
   -0.5130   -6.5540  -25.0210 C   0  0  0  0  0  0  0  0  0  0  0  0
    0.5000   -3.8970  -27.5500 C   0  0  0  0  0  0  0  0  0  0  0  0
   -0.2410   -2.7850  -27.2830 N   0  0  0  0  0  0  0  0  0  0  0  0
    1.4780   -3.8180  -28.2880 O   0  0  0  0  0  0  0  0  0  0  0  0
    0.0270   -1.9030  -27.6910 H   0  0  0  0  0  0  0  0  0  0  0  0
   -1.0420   -2.8330  -26.6600 H   0  0  0  0  0  0  0  0  0  0  0  0
  2  1  1  1  0  0  0
  3  2  1  0  0  0  0
  4  3  2  0  0  0  0
  5  4  1  0  0  0  0
  6  5  2  0  0  0  0
  6  7  1  0  0  0  0
  7  8  2  0  0  0  0
  8  3  1  0  0  0  0
  9  7  1  0  0  0  0
  9 16  1  0  0  0  0
 10  9  1  0  0  0  0
 11 10  1  0  0  0  0
 12 11  2  0  0  0  0
 13 12  1  0  0  0  0
 13 14  2  0  0  0  0
 14 15  1  0  0  0  0
 15 10  2  0  0  0  0
 17 12  1  0  0  0  0
 18 17  3  0  0  0  0
 19  2  1  0  0  0  0
 19 20  1  0  0  0  0
 21 22  1  0  0  0  0
 21 19  1  0  0  0  0
 23 22  2  0  0  0  0
 24 23  1  0  0  0  0
 25 30  1  0  0  0  0
 25 24  2  0  0  0  0
 26 25  1  0  0  0  0
 27 28  1  0  0  0  0
 27 26  2  0  0  0  0
 28 29  2  0  0  0  0
 29 30  1  0  0  0  0
 30 21  2  0  0  0  0
 31 32  1  0  0  0  0
 31 26  1  0  0  0  0
 32 35  1  0  0  0  0
 33 31  2  0  0  0  0
 34 32  1  0  0  0  0
M  END
>  <minimizedAffinity>
-8.05963039

$$$$

 OpenBabel10152418203D

 35 38  0  0  1  0  0  0  0  0999 V2000
    0.8180   -3.8610  -27.7140 C   0  0  0  0  0  1  0  0  0  0  0  0
    1.0620   -5.2960  -28.1970 C   0  0  2  0  0  3  0  0  0  0  0  0
    0.3060   -6.2660  -27.2930 C   0  0  0  0  0  0  0  0  0  0  0  0
    0.0240   -7.5520  -27.7850 C   0  0  0  0  0  3  0  0  0  0  0  0
   -0.5540   -8.5170  -26.9660 C   0  0  0  0  0  3  0  0  0  0  0  0
   -0.8200   -8.2250  -25.6300 C   0  0  0  0  0  3  0  0  0  0  0  0
   -0.5790   -6.9520  -25.1070 C   0  0  0  0  0  0  0  0  0  0  0  0
   -0.0950   -5.9630  -25.9780 C   0  0  0  0  0  3  0  0  0  0  0  0
   -0.7050   -6.6490  -23.7420 N   0  0  0  0  0  0  0  0  0  0  0  0
   -1.1270   -7.3920  -22.6390 C   0  0  0  0  0  0  0  0  0  0  0  0
   -1.0290   -8.7760  -22.5720 C   0  0  0  0  0  3  0  0  0  0  0  0
   -1.5790   -9.4470  -21.4790 C   0  0  0  0  0  0  0  0  0  0  0  0
   -2.1840   -8.7200  -20.4610 C   0  0  0  0  0  3  0  0  0  0  0  0
   -2.1840   -7.3440  -20.5740 C   0  0  0  0  0  3  0  0  0  0  0  0
   -1.6640   -6.6770  -21.6280 N   0  0  0  0  0  0  0  0  0  0  0  0
   -0.6940   -5.6620  -23.5120 H   0  0  0  0  0  0  0  0  0  0  0  0
   -1.5550  -10.8760  -21.4260 C   0  0  0  0  0  0  0  0  0  0  0  0
   -1.5730  -12.0380  -21.3940 N   0  0  0  0  0  0  0  0  0  0  0  0
    2.5060   -5.5000  -28.3720 N   0  0  0  0  0  0  0  0  0  0  0  0
    3.0760   -4.7240  -28.0450 H   0  0  0  0  0  0  0  0  0  0  0  0
    3.2290   -6.6550  -28.2030 C   0  0  0  0  0  0  0  0  0  0  0  0
    3.4580   -6.9010  -26.9040 N   0  0  0  0  0  0  0  0  0  0  0  0
    3.8950   -8.1180  -26.5960 C   0  0  0  0  0  3  0  0  0  0  0  0
    4.0890   -9.1190  -27.4600 N   0  0  0  0  0  0  0  0  0  0  0  0
    3.9290   -8.8590  -28.7790 C   0  0  0  0  0  0  0  0  0  0  0  0
    4.0720   -9.8550  -29.7650 C   0  0  0  0  0  0  0  0  0  0  0  0
    3.9840   -9.5480  -31.1370 C   0  0  0  0  0  3  0  0  0  0  0  0
    3.7430   -8.2490  -31.5540 C   0  0  0  0  0  3  0  0  0  0  0  0
    3.5330   -7.2660  -30.5970 C   0  0  0  0  0  3  0  0  0  0  0  0
    3.5760   -7.5670  -29.2130 C   0  0  0  0  0  0  0  0  0  0  0  0
    4.2600  -11.3040  -29.4380 C   0  0  0  0  0  0  0  0  0  0  0  0
    3.6210  -11.8140  -28.3480 N   0  0  0  0  0  0  0  0  0  0  0  0
    4.9490  -12.0360  -30.1420 O   0  0  0  0  0  0  0  0  0  0  0  0
    3.7160  -12.7960  -28.1340 H   0  0  0  0  0  0  0  0  0  0  0  0
    3.0340  -11.2230  -27.7670 H   0  0  0  0  0  0  0  0  0  0  0  0
  2  1  1  1  0  0  0
  2  3  1  0  0  0  0
  3  8  1  0  0  0  0
  4  3  2  0  0  0  0
  4  5  1  0  0  0  0
  5  6  2  0  0  0  0
  6  7  1  0  0  0  0
  7  9  1  0  0  0  0
  8  7  2  0  0  0  0
  9 16  1  0  0  0  0
  9 10  1  0  0  0  0
 10 11  2  0  0  0  0
 10 15  1  0  0  0  0
 11 12  1  0  0  0  0
 12 17  1  0  0  0  0
 12 13  2  0  0  0  0
 14 13  1  0  0  0  0
 15 14  2  0  0  0  0
 17 18  3  0  0  0  0
 19 21  1  0  0  0  0
 19  2  1  0  0  0  0
 19 20  1  0  0  0  0
 21 22  1  0  0  0  0
 22 23  2  0  0  0  0
 24 23  1  0  0  0  0
 25 24  2  0  0  0  0
 26 31  1  0  0  0  0
 26 25  1  0  0  0  0
 27 26  2  0  0  0  0
 28 27  1  0  0  0  0
 28 29  2  0  0  0  0
 29 30  1  0  0  0  0
 30 25  1  0  0  0  0
 30 21  2  0  0  0  0
 31 32  1  0  0  0  0
 32 34  1  0  0  0  0
 32 35  1  0  0  0  0
 33 31  2  0  0  0  0
M  END
>  <minimizedAffinity>
-7.11154413

$$$$

 OpenBabel10152418203D

 35 38  0  0  1  0  0  0  0  0999 V2000
    1.0980   -3.3810  -28.2440 C   0  0  0  0  0  1  0  0  0  0  0  0
    0.8440   -4.8650  -28.5330 C   0  0  2  0  0  3  0  0  0  0  0  0
    0.3120   -5.5390  -27.2710 C   0  0  0  0  0  0  0  0  0  0  0  0
   -0.2210   -4.7260  -26.2560 C   0  0  0  0  0  3  0  0  0  0  0  0
   -0.8300   -5.2900  -25.1390 C   0  0  0  0  0  3  0  0  0  0  0  0
   -0.9530   -6.6740  -25.0390 C   0  0  0  0  0  3  0  0  0  0  0  0
   -0.4150   -7.5190  -26.0130 C   0  0  0  0  0  0  0  0  0  0  0  0
    0.2880   -6.9340  -27.0780 C   0  0  0  0  0  3  0  0  0  0  0  0
   -0.6280   -8.9070  -26.0240 N   0  0  0  0  0  0  0  0  0  0  0  0
   -0.8260   -9.8460  -25.0110 C   0  0  0  0  0  0  0  0  0  0  0  0
   -1.3710   -9.5260  -23.7740 C   0  0  0  0  0  3  0  0  0  0  0  0
   -1.4280  -10.5050  -22.7810 C   0  0  0  0  0  0  0  0  0  0  0  0
   -0.9700  -11.7880  -23.0540 C   0  0  0  0  0  3  0  0  0  0  0  0
   -0.5010  -12.0390  -24.3280 C   0  0  0  0  0  3  0  0  0  0  0  0
   -0.4310  -11.1030  -25.3000 N   0  0  0  0  0  0  0  0  0  0  0  0
   -0.3970   -9.3760  -26.8920 H   0  0  0  0  0  0  0  0  0  0  0  0
   -1.9180  -10.1780  -21.4770 C   0  0  0  0  0  0  0  0  0  0  0  0
   -2.3390   -9.9430  -20.4200 N   0  0  0  0  0  0  0  0  0  0  0  0
    2.0390   -5.4360  -29.1680 N   0  0  0  0  0  0  0  0  0  0  0  0
    2.5660   -4.7740  -29.7330 H   0  0  0  0  0  0  0  0  0  0  0  0
    2.9290   -6.3450  -28.6480 C   0  0  0  0  0  0  0  0  0  0  0  0
    3.1700   -6.1020  -27.3500 N   0  0  0  0  0  0  0  0  0  0  0  0
    3.7830   -7.0650  -26.6690 C   0  0  0  0  0  3  0  0  0  0  0  0
    4.1430   -8.2560  -27.1540 N   0  0  0  0  0  0  0  0  0  0  0  0
    3.9670   -8.4820  -28.4780 C   0  0  0  0  0  0  0  0  0  0  0  0
    4.2780   -9.7190  -29.0770 C   0  0  0  0  0  0  0  0  0  0  0  0
    4.1680   -9.9080  -30.4680 C   0  0  0  0  0  3  0  0  0  0  0  0
    3.7380   -8.8770  -31.2880 C   0  0  0  0  0  3  0  0  0  0  0  0
    3.3630   -7.6730  -30.7080 C   0  0  0  0  0  3  0  0  0  0  0  0
    3.4280   -7.4810  -29.3060 C   0  0  0  0  0  0  0  0  0  0  0  0
    4.6810  -10.9280  -28.2900 C   0  0  0  0  0  0  0  0  0  0  0  0
    4.9480  -10.7810  -26.9620 N   0  0  0  0  0  0  0  0  0  0  0  0
    4.7470  -12.0380  -28.8090 O   0  0  0  0  0  0  0  0  0  0  0  0
    5.1910  -11.5930  -26.4150 H   0  0  0  0  0  0  0  0  0  0  0  0
    4.8810   -9.8710  -26.5160 H   0  0  0  0  0  0  0  0  0  0  0  0
  2  1  1  1  0  0  0
  2  3  1  0  0  0  0
  3  8  2  0  0  0  0
  3  4  1  0  0  0  0
  4  5  2  0  0  0  0
  5  6  1  0  0  0  0
  7  6  2  0  0  0  0
  8  7  1  0  0  0  0
  9  7  1  0  0  0  0
  9 10  1  0  0  0  0
 10 11  1  0  0  0  0
 11 12  2  0  0  0  0
 12 17  1  0  0  0  0
 13 12  1  0  0  0  0
 14 13  2  0  0  0  0
 15 10  2  0  0  0  0
 15 14  1  0  0  0  0
 16  9  1  0  0  0  0
 17 18  3  0  0  0  0
 19 21  1  0  0  0  0
 19  2  1  0  0  0  0
 20 19  1  0  0  0  0
 21 22  1  0  0  0  0
 22 23  2  0  0  0  0
 24 23  1  0  0  0  0
 25 24  2  0  0  0  0
 26 25  1  0  0  0  0
 26 31  1  0  0  0  0
 27 26  2  0  0  0  0
 28 29  2  0  0  0  0
 28 27  1  0  0  0  0
 29 30  1  0  0  0  0
 30 21  2  0  0  0  0
 30 25  1  0  0  0  0
 31 32  1  0  0  0  0
 32 35  1  0  0  0  0
 32 34  1  0  0  0  0
 33 31  2  0  0  0  0
M  END
>  <minimizedAffinity>
-6.4114542

$$$$

 OpenBabel10152418203D

 35 38  0  0  1  0  0  0  0  0999 V2000
   -0.8090  -10.7360  -24.0770 C   0  0  0  0  0  1  0  0  0  0  0  0
    0.1400   -9.6660  -24.6310 C   0  0  2  0  0  3  0  0  0  0  0  0
    1.4950  -10.3030  -24.9280 C   0  0  0  0  0  0  0  0  0  0  0  0
    1.9440  -11.3370  -24.0890 C   0  0  0  0  0  3  0  0  0  0  0  0
    3.1120  -12.0350  -24.3810 C   0  0  0  0  0  3  0  0  0  0  0  0
    3.8270  -11.7380  -25.5390 C   0  0  0  0  0  3  0  0  0  0  0  0
    3.4310  -10.7010  -26.3870 C   0  0  0  0  0  0  0  0  0  0  0  0
    2.3100   -9.9410  -26.0180 C   0  0  0  0  0  3  0  0  0  0  0  0
    4.0390  -10.4520  -27.6280 N   0  0  0  0  0  0  0  0  0  0  0  0
    3.8930   -9.4330  -28.5700 C   0  0  0  0  0  0  0  0  0  0  0  0
    3.4720   -8.1500  -28.2430 C   0  0  0  0  0  3  0  0  0  0  0  0
    3.2450   -7.2260  -29.2640 C   0  0  0  0  0  0  0  0  0  0  0  0
    3.4740   -7.5930  -30.5850 C   0  0  0  0  0  3  0  0  0  0  0  0
    3.9500   -8.8670  -30.8190 C   0  0  0  0  0  3  0  0  0  0  0  0
    4.1690   -9.7780  -29.8450 N   0  0  0  0  0  0  0  0  0  0  0  0
    4.5250  -11.2390  -28.0400 H   0  0  0  0  0  0  0  0  0  0  0  0
    2.7420   -5.9230  -28.9560 C   0  0  0  0  0  0  0  0  0  0  0  0
    2.3290   -4.8760  -28.6680 N   0  0  0  0  0  0  0  0  0  0  0  0
    0.1080   -8.4960  -23.7430 N   0  0  0  0  0  0  0  0  0  0  0  0
    0.9400   -8.3880  -23.1690 H   0  0  0  0  0  0  0  0  0  0  0  0
   -0.3880   -7.2420  -24.0060 C   0  0  0  0  0  0  0  0  0  0  0  0
   -0.5880   -6.5500  -22.8730 N   0  0  0  0  0  0  0  0  0  0  0  0
   -0.7920   -5.2430  -23.0020 C   0  0  0  0  0  3  0  0  0  0  0  0
   -0.7800   -4.5610  -24.1510 N   0  0  0  0  0  0  0  0  0  0  0  0
   -0.6500   -5.2610  -25.3030 C   0  0  0  0  0  0  0  0  0  0  0  0
   -0.5860   -4.6320  -26.5620 C   0  0  0  0  0  0  0  0  0  0  0  0
   -0.5360   -5.3800  -27.7550 C   0  0  0  0  0  3  0  0  0  0  0  0
   -0.5370   -6.7650  -27.7180 C   0  0  0  0  0  3  0  0  0  0  0  0
   -0.5320   -7.4020  -26.4860 C   0  0  0  0  0  3  0  0  0  0  0  0
   -0.5390   -6.6640  -25.2760 C   0  0  0  0  0  0  0  0  0  0  0  0
   -0.5040   -3.1460  -26.7270 C   0  0  0  0  0  0  0  0  0  0  0  0
    0.4780   -2.6320  -27.5190 N   0  0  0  0  0  0  0  0  0  0  0  0
   -1.3130   -2.3950  -26.1910 O   0  0  0  0  0  0  0  0  0  0  0  0
    0.5270   -1.6340  -27.6630 H   0  0  0  0  0  0  0  0  0  0  0  0
    1.1440   -3.2440  -27.9830 H   0  0  0  0  0  0  0  0  0  0  0  0
  2  1  1  1  0  0  0
  2 19  1  0  0  0  0
  3  2  1  0  0  0  0
  3  4  1  0  0  0  0
  5  4  2  0  0  0  0
  6  5  1  0  0  0  0
  7  8  1  0  0  0  0
  7  6  2  0  0  0  0
  8  3  2  0  0  0  0
  9  7  1  0  0  0  0
 10 11  1  0  0  0  0
 10  9  1  0  0  0  0
 12 17  1  0  0  0  0
 12 11  2  0  0  0  0
 13 12  1  0  0  0  0
 14 13  2  0  0  0  0
 14 15  1  0  0  0  0
 15 10  2  0  0  0  0
 16  9  1  0  0  0  0
 17 18  3  0  0  0  0
 19 20  1  0  0  0  0
 21 19  1  0  0  0  0
 21 22  1  0  0  0  0
 23 22  2  0  0  0  0
 24 23  1  0  0  0  0
 25 30  1  0  0  0  0
 25 24  2  0  0  0  0
 26 25  1  0  0  0  0
 27 28  1  0  0  0  0
 27 26  2  0  0  0  0
 28 29  2  0  0  0  0
 29 30  1  0  0  0  0
 30 21  2  0  0  0  0
 31 26  1  0  0  0  0
 31 33  2  0  0  0  0
 32 31  1  0  0  0  0
 34 32  1  0  0  0  0
 35 32  1  0  0  0  0
M  END
>  <minimizedAffinity>
-6.19777536

$$$$

 OpenBabel10152418203D

 35 38  0  0  1  0  0  0  0  0999 V2000
    0.0140   -6.4670  -24.2850 C   0  0  0  0  0  1  0  0  0  0  0  0
    0.2150   -6.9460  -25.7280 C   0  0  2  0  0  3  0  0  0  0  0  0
   -0.4590   -8.3040  -25.9040 C   0  0  0  0  0  0  0  0  0  0  0  0
   -0.6290   -8.7980  -27.2090 C   0  0  0  0  0  3  0  0  0  0  0  0
   -1.1250  -10.0800  -27.4260 C   0  0  0  0  0  3  0  0  0  0  0  0
   -1.4190  -10.9040  -26.3420 C   0  0  0  0  0  3  0  0  0  0  0  0
   -1.2880  -10.4440  -25.0290 C   0  0  0  0  0  0  0  0  0  0  0  0
   -0.8870   -9.1130  -24.8340 C   0  0  0  0  0  3  0  0  0  0  0  0
   -1.4430  -11.2750  -23.9070 N   0  0  0  0  0  0  0  0  0  0  0  0
   -1.4820  -11.0220  -22.5360 C   0  0  0  0  0  0  0  0  0  0  0  0
   -1.8920   -9.8090  -21.9980 C   0  0  0  0  0  3  0  0  0  0  0  0
   -1.7920   -9.6050  -20.6210 C   0  0  0  0  0  0  0  0  0  0  0  0
   -1.3160  -10.6270  -19.8080 C   0  0  0  0  0  3  0  0  0  0  0  0
   -0.9880  -11.8220  -20.4150 C   0  0  0  0  0  3  0  0  0  0  0  0
   -1.0710  -12.0370  -21.7470 N   0  0  0  0  0  0  0  0  0  0  0  0
   -1.2950  -12.2630  -24.0750 H   0  0  0  0  0  0  0  0  0  0  0  0
   -2.1390   -8.3380  -20.0550 C   0  0  0  0  0  0  0  0  0  0  0  0
   -2.4470   -7.3040  -19.6250 N   0  0  0  0  0  0  0  0  0  0  0  0
    1.6380   -6.8320  -26.0740 N   0  0  0  0  0  0  0  0  0  0  0  0
    2.1610   -6.1990  -25.4730 H   0  0  0  0  0  0  0  0  0  0  0  0
    2.4950   -7.8210  -26.4890 C   0  0  0  0  0  0  0  0  0  0  0  0
    2.6540   -8.7580  -25.5420 N   0  0  0  0  0  0  0  0  0  0  0  0
    3.2260   -9.8970  -25.9210 C   0  0  0  0  0  3  0  0  0  0  0  0
    3.6190  -10.1980  -27.1620 N   0  0  0  0  0  0  0  0  0  0  0  0
    3.5270   -9.2330  -28.1080 C   0  0  0  0  0  0  0  0  0  0  0  0
    3.8780   -9.4630  -29.4530 C   0  0  0  0  0  0  0  0  0  0  0  0
    3.8560   -8.4250  -30.4040 C   0  0  0  0  0  3  0  0  0  0  0  0
    3.4760   -7.1430  -30.0410 C   0  0  0  0  0  3  0  0  0  0  0  0
    3.0620   -6.9130  -28.7370 C   0  0  0  0  0  3  0  0  0  0  0  0
    3.0380   -7.9550  -27.7780 C   0  0  0  0  0  0  0  0  0  0  0  0
    4.2350  -10.8180  -29.9820 C   0  0  0  0  0  0  0  0  0  0  0  0
    4.9600  -11.6560  -29.1900 N   0  0  0  0  0  0  0  0  0  0  0  0
    3.8650  -11.1910  -31.0910 O   0  0  0  0  0  0  0  0  0  0  0  0
    5.1810  -12.5830  -29.5230 H   0  0  0  0  0  0  0  0  0  0  0  0
    5.2580  -11.3660  -28.2630 H   0  0  0  0  0  0  0  0  0  0  0  0
  2  1  1  1  0  0  0
  3  2  1  0  0  0  0
  3  8  1  0  0  0  0
  4  3  2  0  0  0  0
  5  4  1  0  0  0  0
  5  6  2  0  0  0  0
  6  7  1  0  0  0  0
  7  8  2  0  0  0  0
  7  9  1  0  0  0  0
  9 10  1  0  0  0  0
 10 11  2  0  0  0  0
 10 15  1  0  0  0  0
 11 12  1  0  0  0  0
 12 17  1  0  0  0  0
 12 13  2  0  0  0  0
 14 13  1  0  0  0  0
 15 14  2  0  0  0  0
 16  9  1  0  0  0  0
 17 18  3  0  0  0  0
 19  2  1  0  0  0  0
 19 20  1  0  0  0  0
 21 19  1  0  0  0  0
 21 22  1  0  0  0  0
 23 22  2  0  0  0  0
 24 23  1  0  0  0  0
 25 30  1  0  0  0  0
 25 24  2  0  0  0  0
 26 25  1  0  0  0  0
 27 28  1  0  0  0  0
 27 26  2  0  0  0  0
 28 29  2  0  0  0  0
 29 30  1  0  0  0  0
 30 21  2  0  0  0  0
 31 26  1  0  0  0  0
 31 32  1  0  0  0  0
 32 35  1  0  0  0  0
 33 31  2  0  0  0  0
 34 32  1  0  0  0  0
M  END
>  <minimizedAffinity>
-5.21677065

$$$$
