
 OpenBabel10152418203D

 35 38  0  0  1  0  0  0  0  0999 V2000
    0.8180   -3.8610  -27.7140 C   0  0  0  0  0  1  0  0  0  0  0  0
    1.0620   -5.2960  -28.1970 C   0  0  2  0  0  3  0  0  0  0  0  0
    0.3060   -6.2660  -27.2930 C   0  0  0  0  0  0  0  0  0  0  0  0
    0.0240   -7.5520  -27.7850 C   0  0  0  0  0  3  0  0  0  0  0  0
   -0.5540   -8.5170  -26.9660 C   0  0  0  0  0  3  0  0  0  0  0  0
   -0.8200   -8.2250  -25.6300 C   0  0  0  0  0  3  0  0  0  0  0  0
   -0.5790   -6.9520  -25.1070 C   0  0  0  0  0  0  0  0  0  0  0  0
   -0.0950   -5.9630  -25.9780 C   0  0  0  0  0  3  0  0  0  0  0  0
   -0.7050   -6.6490  -23.7420 N   0  0  0  0  0  0  0  0  0  0  0  0
   -1.1270   -7.3920  -22.6390 C   0  0  0  0  0  0  0  0  0  0  0  0
   -1.0290   -8.7760  -22.5720 C   0  0  0  0  0  3  0  0  0  0  0  0
   -1.5790   -9.4470  -21.4790 C   0  0  0  0  0  0  0  0  0  0  0  0
   -2.1840   -8.7200  -20.4610 C   0  0  0  0  0  3  0  0  0  0  0  0
   -2.1840   -7.3440  -20.5740 C   0  0  0  0  0  3  0  0  0  0  0  0
   -1.6640   -6.6770  -21.6280 N   0  0  0  0  0  0  0  0  0  0  0  0
   -0.6940   -5.6620  -23.5120 H   0  0  0  0  0  0  0  0  0  0  0  0
   -1.5550  -10.8760  -21.4260 C   0  0  0  0  0  0  0  0  0  0  0  0
   -1.5730  -12.0380  -21.3940 N   0  0  0  0  0  0  0  0  0  0  0  0
    2.5060   -5.5000  -28.3720 N   0  0  0  0  0  0  0  0  0  0  0  0
    3.0760   -4.7240  -28.0450 H   0  0  0  0  0  0  0  0  0  0  0  0
    3.2290   -6.6550  -28.2030 C   0  0  0  0  0  0  0  0  0  0  0  0
    3.4580   -6.9010  -26.9040 N   0  0  0  0  0  0  0  0  0  0  0  0
    3.8950   -8.1180  -26.5960 C   0  0  0  0  0  3  0  0  0  0  0  0
    4.0890   -9.1190  -27.4600 N   0  0  0  0  0  0  0  0  0  0  0  0
    3.9290   -8.8590  -28.7790 C   0  0  0  0  0  0  0  0  0  0  0  0
    4.0720   -9.8550  -29.7650 C   0  0  0  0  0  0  0  0  0  0  0  0
    3.9840   -9.5480  -31.1370 C   0  0  0  0  0  3  0  0  0  0  0  0
    3.7430   -8.2490  -31.5540 C   0  0  0  0  0  3  0  0  0  0  0  0
    3.5330   -7.2660  -30.5970 C   0  0  0  0  0  3  0  0  0  0  0  0
    3.5760   -7.5670  -29.2130 C   0  0  0  0  0  0  0  0  0  0  0  0
    4.2600  -11.3040  -29.4380 C   0  0  0  0  0  0  0  0  0  0  0  0
    3.6210  -11.8140  -28.3480 N   0  0  0  0  0  0  0  0  0  0  0  0
    4.9490  -12.0360  -30.1420 O   0  0  0  0  0  0  0  0  0  0  0  0
    3.7160  -12.7960  -28.1340 H   0  0  0  0  0  0  0  0  0  0  0  0
    3.0340  -11.2230  -27.7670 H   0  0  0  0  0  0  0  0  0  0  0  0
  2  1  1  1  0  0  0
  2  3  1  0  0  0  0
  3  8  1  0  0  0  0
  4  3  2  0  0  0  0
  4  5  1  0  0  0  0
  5  6  2  0  0  0  0
  6  7  1  0  0  0  0
  7  9  1  0  0  0  0
  8  7  2  0  0  0  0
  9 16  1  0  0  0  0
  9 10  1  0  0  0  0
 10 11  2  0  0  0  0
 10 15  1  0  0  0  0
 11 12  1  0  0  0  0
 12 17  1  0  0  0  0
 12 13  2  0  0  0  0
 14 13  1  0  0  0  0
 15 14  2  0  0  0  0
 17 18  3  0  0  0  0
 19 21  1  0  0  0  0
 19  2  1  0  0  0  0
 19 20  1  0  0  0  0
 21 22  1  0  0  0  0
 22 23  2  0  0  0  0
 24 23  1  0  0  0  0
 25 24  2  0  0  0  0
 26 31  1  0  0  0  0
 26 25  1  0  0  0  0
 27 26  2  0  0  0  0
 28 27  1  0  0  0  0
 28 29  2  0  0  0  0
 29 30  1  0  0  0  0
 30 25  1  0  0  0  0
 30 21  2  0  0  0  0
 31 32  1  0  0  0  0
 32 34  1  0  0  0  0
 32 35  1  0  0  0  0
 33 31  2  0  0  0  0
M  END
>  <minimizedAffinity>
-7.11154413

$$$$
