
 OpenBabel10152419573D

 38 41  0  0  0  0  0  0  0  0999 V2000
    0.5160   -7.5730  -23.8430 C   0  0  0  0  0  2  0  0  0  0  0  0
    2.6350   -8.3980  -26.9330 C   0  0  0  0  0  0  0  0  0  0  0  0
    3.0660   -9.6930  -26.6490 C   0  0  0  0  0  3  0  0  0  0  0  0
    2.7470  -10.2750  -25.4270 C   0  0  0  0  0  3  0  0  0  0  0  0
    1.9590   -9.5780  -24.5110 C   0  0  0  0  0  3  0  0  0  0  0  0
    1.4100   -8.3230  -24.8210 C   0  0  0  0  0  0  0  0  0  0  0  0
    1.7650   -7.7440  -26.0470 C   0  0  0  0  0  3  0  0  0  0  0  0
    2.5700   -6.8020  -28.8820 C   0  0  0  0  0  0  0  0  0  0  0  0
    2.9920   -6.5870  -30.0160 O   0  0  0  0  0  0  0  0  0  0  0  0
    3.1190   -7.8040  -28.1100 N   0  0  0  0  0  0  0  0  0  0  0  0
    4.0240   -8.1080  -28.4500 H   0  0  0  0  0  0  0  0  0  0  0  0
   -0.4000   -4.2470  -27.1480 C   0  0  0  0  0  0  0  0  0  0  0  0
   -0.6600   -5.6050  -27.3600 C   0  0  0  0  0  3  0  0  0  0  0  0
    0.3020   -6.4340  -27.9450 C   0  0  0  0  0  3  0  0  0  0  0  0
    1.5370   -5.9000  -28.3160 C   0  0  0  0  0  0  0  0  0  0  0  0
    1.7730   -4.5260  -28.1700 C   0  0  0  0  0  3  0  0  0  0  0  0
    0.8130   -3.7050  -27.5740 C   0  0  0  0  0  3  0  0  0  0  0  0
   -1.1070   -2.2350  -26.1050 C   0  0  0  0  0  1  0  0  0  0  0  0
   -1.4090   -3.5590  -26.5320 O   0  0  0  0  0  0  0  0  0  0  0  0
   -0.8960   -7.8080  -24.0960 N   0  0  0  0  0  0  0  0  0  0  0  0
   -1.2430   -7.6930  -25.0350 H   0  0  0  0  0  0  0  0  0  0  0  0
   -1.6460   -8.4810  -23.1430 C   0  0  0  0  0  0  0  0  0  0  0  0
   -2.2860   -7.7230  -22.2350 N   0  0  0  0  0  0  0  0  0  0  0  0
   -2.7080   -8.3320  -21.1300 C   0  0  0  0  0  3  0  0  0  0  0  0
   -2.4650   -9.6040  -20.8070 N   0  0  0  0  0  0  0  0  0  0  0  0
   -1.8690  -10.3780  -21.7340 C   0  0  0  0  0  0  0  0  0  0  0  0
   -1.5440  -11.7150  -21.4700 C   0  0  0  0  0  0  0  0  0  0  0  0
   -1.0340  -12.5870  -22.4410 C   0  0  0  0  0  3  0  0  0  0  0  0
   -0.7660  -12.0880  -23.6990 C   0  0  0  0  0  0  0  0  0  0  0  0
   -0.9590  -10.7420  -23.9700 C   0  0  0  0  0  3  0  0  0  0  0  0
   -1.5050   -9.8730  -22.9900 C   0  0  0  0  0  0  0  0  0  0  0  0
   -1.6030  -12.2480  -20.0940 C   0  0  0  0  0  0  0  0  0  0  0  0
   -2.8540  -12.5750  -19.6410 N   0  0  0  0  0  0  0  0  0  0  0  0
   -0.6190  -12.2690  -19.3730 O   0  0  0  0  0  0  0  0  0  0  0  0
   -2.9510  -12.8990  -18.6890 H   0  0  0  0  0  0  0  0  0  0  0  0
   -3.6730  -12.5410  -20.2320 H   0  0  0  0  0  0  0  0  0  0  0  0
   -0.2720  -12.8780  -24.6910 O   0  0  0  0  0  0  0  0  0  0  0  0
   -0.2590  -13.8020  -24.3860 H   0  0  0  0  0  0  0  0  0  0  0  0
  2  3  2  0  0  0  0
  2  7  1  0  0  0  0
  3  4  1  0  0  0  0
  4  5  2  0  0  0  0
  6  5  1  0  0  0  0
  6  1  1  0  0  0  0
  7  6  2  0  0  0  0
  8 15  1  0  0  0  0
  8 10  1  0  0  0  0
  9  8  2  0  0  0  0
 10  2  1  0  0  0  0
 11 10  1  0  0  0  0
 12 19  1  0  0  0  0
 13 12  1  0  0  0  0
 14 13  2  0  0  0  0
 15 16  2  0  0  0  0
 15 14  1  0  0  0  0
 16 17  1  0  0  0  0
 17 12  2  0  0  0  0
 19 18  1  0  0  0  0
 20  1  1  0  0  0  0
 20 22  1  0  0  0  0
 21 20  1  0  0  0  0
 22 31  2  0  0  0  0
 22 23  1  0  0  0  0
 23 24  2  0  0  0  0
 24 25  1  0  0  0  0
 26 27  1  0  0  0  0
 26 25  2  0  0  0  0
 27 32  1  0  0  0  0
 28 27  2  0  0  0  0
 29 28  1  0  0  0  0
 30 29  2  0  0  0  0
 30 31  1  0  0  0  0
 31 26  1  0  0  0  0
 32 33  1  0  0  0  0
 32 34  2  0  0  0  0
 33 35  1  0  0  0  0
 36 33  1  0  0  0  0
 37 38  1  0  0  0  0
 37 29  1  0  0  0  0
M  END
>  <minimizedAffinity>
-7.33887768

$$$$
