
 OpenBabel10152419573D

 38 41  0  0  0  0  0  0  0  0999 V2000
   -1.0060   -7.8130  -26.0390 C   0  0  0  0  0  2  0  0  0  0  0  0
    1.5280   -6.0640  -28.3280 C   0  0  0  0  0  0  0  0  0  0  0  0
    1.3270   -4.7220  -28.0080 C   0  0  0  0  0  3  0  0  0  0  0  0
    0.3200   -4.3680  -27.1170 C   0  0  0  0  0  3  0  0  0  0  0  0
   -0.4530   -5.3600  -26.5130 C   0  0  0  0  0  3  0  0  0  0  0  0
   -0.1920   -6.7240  -26.7240 C   0  0  0  0  0  0  0  0  0  0  0  0
    0.8100   -7.0580  -27.6450 C   0  0  0  0  0  3  0  0  0  0  0  0
    3.5130   -7.2240  -29.3570 C   0  0  0  0  0  0  0  0  0  0  0  0
    4.3700   -7.1560  -30.2370 O   0  0  0  0  0  0  0  0  0  0  0  0
    2.4490   -6.3490  -29.3500 N   0  0  0  0  0  0  0  0  0  0  0  0
    2.3160   -5.8860  -30.2420 H   0  0  0  0  0  0  0  0  0  0  0  0
    3.8240  -10.4300  -26.5320 C   0  0  0  0  0  0  0  0  0  0  0  0
    3.8580  -10.6820  -27.9080 C   0  0  0  0  0  3  0  0  0  0  0  0
    3.7360   -9.6380  -28.8280 C   0  0  0  0  0  3  0  0  0  0  0  0
    3.5840   -8.3290  -28.3690 C   0  0  0  0  0  0  0  0  0  0  0  0
    3.4770   -8.0820  -26.9940 C   0  0  0  0  0  3  0  0  0  0  0  0
    3.6130   -9.1280  -26.0770 C   0  0  0  0  0  3  0  0  0  0  0  0
    3.7100  -12.7940  -26.3380 C   0  0  0  0  0  1  0  0  0  0  0  0
    3.9950  -11.5320  -25.7410 O   0  0  0  0  0  0  0  0  0  0  0  0
   -0.3740   -9.1190  -26.1410 N   0  0  0  0  0  0  0  0  0  0  0  0
    0.0290   -9.3920  -27.0230 H   0  0  0  0  0  0  0  0  0  0  0  0
   -0.0570   -9.8040  -24.9770 C   0  0  0  0  0  0  0  0  0  0  0  0
    0.6630  -10.9300  -25.1190 N   0  0  0  0  0  0  0  0  0  0  0  0
    0.6760  -11.7730  -24.0890 C   0  0  0  0  0  3  0  0  0  0  0  0
   -0.0410  -11.6390  -22.9720 N   0  0  0  0  0  0  0  0  0  0  0  0
   -0.7240  -10.4900  -22.8050 C   0  0  0  0  0  0  0  0  0  0  0  0
   -1.5320  -10.2780  -21.6800 C   0  0  0  0  0  0  0  0  0  0  0  0
   -2.1640   -9.0570  -21.4090 C   0  0  0  0  0  3  0  0  0  0  0  0
   -2.0500   -8.0360  -22.3310 C   0  0  0  0  0  0  0  0  0  0  0  0
   -1.3610   -8.2430  -23.5160 C   0  0  0  0  0  3  0  0  0  0  0  0
   -0.6970   -9.4720  -23.7680 C   0  0  0  0  0  0  0  0  0  0  0  0
   -1.8690  -11.3920  -20.7720 C   0  0  0  0  0  0  0  0  0  0  0  0
   -0.8290  -11.8800  -20.0260 N   0  0  0  0  0  0  0  0  0  0  0  0
   -2.9690  -11.9200  -20.7870 O   0  0  0  0  0  0  0  0  0  0  0  0
   -0.9990  -12.6750  -19.4250 H   0  0  0  0  0  0  0  0  0  0  0  0
    0.0880  -11.4550  -20.0260 H   0  0  0  0  0  0  0  0  0  0  0  0
   -2.6340   -6.8240  -22.1310 O   0  0  0  0  0  0  0  0  0  0  0  0
   -3.0150   -6.7970  -21.2360 H   0  0  0  0  0  0  0  0  0  0  0  0
  2  3  2  0  0  0  0
  2  7  1  0  0  0  0
  3  4  1  0  0  0  0
  4  5  2  0  0  0  0
  6  5  1  0  0  0  0
  6  1  1  0  0  0  0
  7  6  2  0  0  0  0
  8 10  1  0  0  0  0
  8 15  1  0  0  0  0
  9  8  2  0  0  0  0
 10  2  1  0  0  0  0
 11 10  1  0  0  0  0
 12 17  1  0  0  0  0
 12 19  1  0  0  0  0
 13 12  2  0  0  0  0
 14 15  2  0  0  0  0
 14 13  1  0  0  0  0
 15 16  1  0  0  0  0
 16 17  2  0  0  0  0
 18 19  1  0  0  0  0
 20  1  1  0  0  0  0
 20 22  1  0  0  0  0
 21 20  1  0  0  0  0
 22 31  1  0  0  0  0
 23 22  2  0  0  0  0
 23 24  1  0  0  0  0
 24 25  2  0  0  0  0
 25 26  1  0  0  0  0
 26 27  1  0  0  0  0
 27 28  2  0  0  0  0
 27 32  1  0  0  0  0
 29 37  1  0  0  0  0
 29 28  1  0  0  0  0
 30 29  2  0  0  0  0
 31 30  1  0  0  0  0
 31 26  2  0  0  0  0
 32 33  1  0  0  0  0
 33 35  1  0  0  0  0
 34 32  2  0  0  0  0
 36 33  1  0  0  0  0
 37 38  1  0  0  0  0
M  END
>  <minimizedAffinity>
-8.2767067

$$$$
