
 OpenBabel10152419573D

 38 41  0  0  0  0  0  0  0  0999 V2000
   -2.8240   -7.6110  -24.6580 C   0  0  0  0  0  2  0  0  0  0  0  0
   -2.2540   -9.4330  -21.3300 C   0  0  0  0  0  0  0  0  0  0  0  0
   -1.6160   -8.4530  -20.5710 C   0  0  0  0  0  3  0  0  0  0  0  0
   -1.2920   -7.2320  -21.1520 C   0  0  0  0  0  3  0  0  0  0  0  0
   -1.6480   -6.9770  -22.4760 C   0  0  0  0  0  3  0  0  0  0  0  0
   -2.3980   -7.8980  -23.2250 C   0  0  0  0  0  0  0  0  0  0  0  0
   -2.6920   -9.1330  -22.6290 C   0  0  0  0  0  3  0  0  0  0  0  0
   -2.0920  -11.9450  -21.2340 C   0  0  0  0  0  0  0  0  0  0  0  0
   -2.5380  -12.9590  -20.7020 O   0  0  0  0  0  0  0  0  0  0  0  0
   -2.4130  -10.6990  -20.7420 N   0  0  0  0  0  0  0  0  0  0  0  0
   -2.7820  -10.7340  -19.7980 H   0  0  0  0  0  0  0  0  0  0  0  0
    0.7010  -12.4610  -24.4420 C   0  0  0  0  0  0  0  0  0  0  0  0
    0.9780  -12.9590  -23.1650 C   0  0  0  0  0  3  0  0  0  0  0  0
    0.0760  -12.7730  -22.1140 C   0  0  0  0  0  3  0  0  0  0  0  0
   -1.1170  -12.0860  -22.3440 C   0  0  0  0  0  0  0  0  0  0  0  0
   -1.3630  -11.5230  -23.6040 C   0  0  0  0  0  3  0  0  0  0  0  0
   -0.4640  -11.7230  -24.6540 C   0  0  0  0  0  3  0  0  0  0  0  0
    1.3330  -12.3890  -26.7300 C   0  0  0  0  0  1  0  0  0  0  0  0
    1.6470  -12.7470  -25.3880 O   0  0  0  0  0  0  0  0  0  0  0  0
   -1.8380   -8.0650  -25.6270 N   0  0  0  0  0  0  0  0  0  0  0  0
   -2.0340   -8.8960  -26.1600 H   0  0  0  0  0  0  0  0  0  0  0  0
   -0.8330   -7.1940  -26.0190 C   0  0  0  0  0  0  0  0  0  0  0  0
   -1.2200   -6.0720  -26.6500 N   0  0  0  0  0  0  0  0  0  0  0  0
   -0.2900   -5.4110  -27.3340 C   0  0  0  0  0  3  0  0  0  0  0  0
    0.9660   -5.8190  -27.5240 N   0  0  0  0  0  0  0  0  0  0  0  0
    1.3720   -6.9150  -26.8550 C   0  0  0  0  0  0  0  0  0  0  0  0
    2.6610   -7.4370  -27.0220 C   0  0  0  0  0  0  0  0  0  0  0  0
    3.1630   -8.5010  -26.2600 C   0  0  0  0  0  3  0  0  0  0  0  0
    2.3240   -9.1170  -25.3540 C   0  0  0  0  0  0  0  0  0  0  0  0
    1.0020   -8.7120  -25.2430 C   0  0  0  0  0  3  0  0  0  0  0  0
    0.5110   -7.6130  -25.9960 C   0  0  0  0  0  0  0  0  0  0  0  0
    3.5290   -6.9660  -28.1190 C   0  0  0  0  0  0  0  0  0  0  0  0
    2.9420   -6.9150  -29.3550 N   0  0  0  0  0  0  0  0  0  0  0  0
    4.7210   -6.7630  -27.9510 O   0  0  0  0  0  0  0  0  0  0  0  0
    3.5100   -6.6450  -30.1470 H   0  0  0  0  0  0  0  0  0  0  0  0
    1.9590   -7.0990  -29.4990 H   0  0  0  0  0  0  0  0  0  0  0  0
    2.7440  -10.1530  -24.5800 O   0  0  0  0  0  0  0  0  0  0  0  0
    3.7010  -10.2780  -24.7070 H   0  0  0  0  0  0  0  0  0  0  0  0
  1  6  1  0  0  0  0
  2 10  1  0  0  0  0
  2  3  1  0  0  0  0
  4  3  2  0  0  0  0
  5  4  1  0  0  0  0
  6  7  1  0  0  0  0
  6  5  2  0  0  0  0
  7  2  2  0  0  0  0
  8 10  1  0  0  0  0
  8  9  2  0  0  0  0
 10 11  1  0  0  0  0
 12 13  1  0  0  0  0
 13 14  2  0  0  0  0
 15 14  1  0  0  0  0
 15  8  1  0  0  0  0
 16 15  2  0  0  0  0
 17 12  2  0  0  0  0
 17 16  1  0  0  0  0
 18 19  1  0  0  0  0
 19 12  1  0  0  0  0
 20  1  1  0  0  0  0
 21 20  1  0  0  0  0
 22 31  1  0  0  0  0
 22 20  1  0  0  0  0
 23 22  2  0  0  0  0
 24 23  1  0  0  0  0
 25 24  2  0  0  0  0
 25 26  1  0  0  0  0
 26 31  1  0  0  0  0
 27 26  2  0  0  0  0
 27 28  1  0  0  0  0
 28 29  2  0  0  0  0
 29 30  1  0  0  0  0
 29 37  1  0  0  0  0
 31 30  2  0  0  0  0
 32 34  2  0  0  0  0
 32 27  1  0  0  0  0
 33 32  1  0  0  0  0
 35 33  1  0  0  0  0
 36 33  1  0  0  0  0
 38 37  1  0  0  0  0
M  END
>  <minimizedAffinity>
-7.64548731

$$$$
