
 OpenBabel10152419573D

 38 41  0  0  0  0  0  0  0  0999 V2000
   -0.3290   -6.7350  -24.5470 C   0  0  0  0  0  2  0  0  0  0  0  0
   -1.5970   -9.4430  -22.1430 C   0  0  0  0  0  0  0  0  0  0  0  0
   -2.8730   -8.9760  -21.8290 C   0  0  0  0  0  3  0  0  0  0  0  0
   -3.2990   -7.7480  -22.3240 C   0  0  0  0  0  3  0  0  0  0  0  0
   -2.4670   -7.0120  -23.1670 C   0  0  0  0  0  3  0  0  0  0  0  0
   -1.2270   -7.5150  -23.5960 C   0  0  0  0  0  0  0  0  0  0  0  0
   -0.8050   -8.7420  -23.0660 C   0  0  0  0  0  3  0  0  0  0  0  0
   -0.6550  -11.7760  -22.0160 C   0  0  0  0  0  0  0  0  0  0  0  0
   -0.5730  -12.7880  -21.3220 O   0  0  0  0  0  0  0  0  0  0  0  0
   -1.1610  -10.6080  -21.4890 N   0  0  0  0  0  0  0  0  0  0  0  0
   -1.1720  -10.6080  -20.4750 H   0  0  0  0  0  0  0  0  0  0  0  0
    0.9670  -11.9570  -25.9770 C   0  0  0  0  0  0  0  0  0  0  0  0
    1.8040  -12.0090  -24.8570 C   0  0  0  0  0  3  0  0  0  0  0  0
    1.2760  -11.9290  -23.5660 C   0  0  0  0  0  3  0  0  0  0  0  0
   -0.1030  -11.8020  -23.3930 C   0  0  0  0  0  0  0  0  0  0  0  0
   -0.9370  -11.6770  -24.5130 C   0  0  0  0  0  3  0  0  0  0  0  0
   -0.4050  -11.7700  -25.8010 C   0  0  0  0  0  3  0  0  0  0  0  0
    2.7320  -12.9590  -27.2110 C   0  0  0  0  0  1  0  0  0  0  0  0
    1.6060  -12.0870  -27.1790 O   0  0  0  0  0  0  0  0  0  0  0  0
    0.5330   -7.6070  -25.3290 N   0  0  0  0  0  0  0  0  0  0  0  0
    0.3760   -8.6010  -25.2900 H   0  0  0  0  0  0  0  0  0  0  0  0
    1.3120   -7.0530  -26.3340 C   0  0  0  0  0  0  0  0  0  0  0  0
    0.8100   -5.9750  -26.9610 N   0  0  0  0  0  0  0  0  0  0  0  0
    1.3530   -5.6500  -28.1310 C   0  0  0  0  0  3  0  0  0  0  0  0
    2.2840   -6.3560  -28.7750 N   0  0  0  0  0  0  0  0  0  0  0  0
    2.8240   -7.4070  -28.1290 C   0  0  0  0  0  0  0  0  0  0  0  0
    3.7810   -8.2270  -28.7420 C   0  0  0  0  0  0  0  0  0  0  0  0
    4.4540   -9.2550  -28.0680 C   0  0  0  0  0  3  0  0  0  0  0  0
    4.1050   -9.5270  -26.7610 C   0  0  0  0  0  0  0  0  0  0  0  0
    3.0780   -8.8200  -26.1540 C   0  0  0  0  0  3  0  0  0  0  0  0
    2.4230   -7.7590  -26.8330 C   0  0  0  0  0  0  0  0  0  0  0  0
    4.0420   -8.1300  -30.1910 C   0  0  0  0  0  0  0  0  0  0  0  0
    3.7530   -9.2540  -30.9190 N   0  0  0  0  0  0  0  0  0  0  0  0
    4.5970   -7.1580  -30.6790 O   0  0  0  0  0  0  0  0  0  0  0  0
    3.9600   -9.2520  -31.9090 H   0  0  0  0  0  0  0  0  0  0  0  0
    3.3100  -10.0660  -30.5140 H   0  0  0  0  0  0  0  0  0  0  0  0
    4.7180  -10.5080  -26.0460 O   0  0  0  0  0  0  0  0  0  0  0  0
    5.4600  -10.8650  -26.5650 H   0  0  0  0  0  0  0  0  0  0  0  0
  1  6  1  0  0  0  0
  2  3  1  0  0  0  0
  2 10  1  0  0  0  0
  4  3  2  0  0  0  0
  5  4  1  0  0  0  0
  6  5  2  0  0  0  0
  6  7  1  0  0  0  0
  7  2  2  0  0  0  0
  8 10  1  0  0  0  0
  8  9  2  0  0  0  0
 10 11  1  0  0  0  0
 12 17  2  0  0  0  0
 12 13  1  0  0  0  0
 13 14  2  0  0  0  0
 14 15  1  0  0  0  0
 15  8  1  0  0  0  0
 16 15  2  0  0  0  0
 17 16  1  0  0  0  0
 18 19  1  0  0  0  0
 19 12  1  0  0  0  0
 20 21  1  0  0  0  0
 20  1  1  0  0  0  0
 22 20  1  0  0  0  0
 23 22  2  0  0  0  0
 24 23  1  0  0  0  0
 25 24  2  0  0  0  0
 25 26  1  0  0  0  0
 26 31  1  0  0  0  0
 27 26  2  0  0  0  0
 27 28  1  0  0  0  0
 28 29  2  0  0  0  0
 29 30  1  0  0  0  0
 29 37  1  0  0  0  0
 31 22  1  0  0  0  0
 31 30  2  0  0  0  0
 32 27  1  0  0  0  0
 33 36  1  0  0  0  0
 33 32  1  0  0  0  0
 34 32  2  0  0  0  0
 35 33  1  0  0  0  0
 38 37  1  0  0  0  0
M  END
>  <minimizedAffinity>
-7.60904741

$$$$
