REMARK  Name = 
REMARK  9 active torsions:
REMARK  status: ('A' for Active; 'I' for Inactive)
REMARK    1  A    between atoms: C_1  and  O_2
REMARK    2  A    between atoms: O_2  and  C_3
REMARK    3  A    between atoms: C_6  and  C_7
REMARK    4  A    between atoms: N_9  and  C_10
REMARK    5  A    between atoms: C_14  and  C_15
REMARK    6  A    between atoms: C_15  and  N_16
REMARK    7  A    between atoms: N_16  and  C_17
REMARK    8  A    between atoms: C_22  and  C_23
REMARK    9  A    between atoms: C_27  and  O_28
REMARK                            x       y       z     vdW  Elec       q    Type
REMARK                         _______ _______ _______ _____ _____    ______ ____
ROOT
ATOM      1  C   UNL     1       5.076  -0.602  -3.205  0.00  0.00    +0.138 C 
ENDROOT
BRANCH   1   6
ATOM      2  C   UNL     1       4.379   2.965  -4.433  0.00  0.00    +0.034 A 
ATOM      3  C   UNL     1       5.533   3.638  -4.033  0.00  0.00    +0.023 A 
ATOM      4  C   UNL     1       6.502   2.968  -3.295  0.00  0.00    +0.002 A 
ATOM      5  C   UNL     1       6.337   1.615  -2.998  0.00  0.00    +0.005 A 
ATOM      6  C   UNL     1       5.244   0.884  -3.492  0.00  0.00    -0.029 A 
ATOM      7  C   UNL     1       4.266   1.584  -4.212  0.00  0.00    +0.028 A 
BRANCH   2  10
ATOM      8  C   UNL     1       2.002   3.533  -5.045  0.00  0.00    +0.248 C 
ATOM      9  O   UNL     1       1.290   4.147  -5.837  0.00  0.00    -0.270 OA
ATOM     10  N   UNL     1       3.366   3.730  -5.035  0.00  0.00    -0.281 N 
ATOM     11  H   UNL     1       3.642   4.582  -5.510  0.00  0.00    +0.155 HD
BRANCH   8  15
ATOM     12  C   UNL     1       0.203   0.926  -2.160  0.00  0.00    +0.120 A 
ATOM     13  C   UNL     1      -0.215   0.914  -3.495  0.00  0.00    +0.046 A 
ATOM     14  C   UNL     1       0.358   1.779  -4.431  0.00  0.00    +0.016 A 
ATOM     15  C   UNL     1       1.362   2.661  -4.029  0.00  0.00    +0.037 A 
ATOM     16  C   UNL     1       1.732   2.726  -2.679  0.00  0.00    +0.016 A 
ATOM     17  C   UNL     1       1.165   1.850  -1.750  0.00  0.00    +0.046 A 
BRANCH  12  19
ATOM     18  C   UNL     1       0.163  -0.200  -0.070  0.00  0.00    +0.277 C 
ATOM     19  O   UNL     1      -0.409   0.003  -1.358  0.00  0.00    -0.495 OA
ENDBRANCH  12  19
ENDBRANCH   8  15
ENDBRANCH   2  10
ENDBRANCH   1   6
BRANCH   1  20
ATOM     20  N   UNL     1       6.165  -1.395  -3.753  0.00  0.00    -0.324 N 
ATOM     21  H   UNL     1       6.090  -1.727  -4.701  0.00  0.00    +0.148 HD
BRANCH  20  22
ATOM     22  C   UNL     1       7.387  -1.401  -3.097  0.00  0.00    +0.130 A 
ATOM     23  N   UNL     1       7.349  -1.405  -1.753  0.00  0.00    -0.220 NA
ATOM     24  C   UNL     1       8.465  -1.060  -1.116  0.00  0.00    +0.223 A 
ATOM     25  N   UNL     1       9.582  -0.620  -1.697  0.00  0.00    -0.235 NA
ATOM     26  C   UNL     1       9.642  -0.661  -3.042  0.00  0.00    +0.088 A 
ATOM     27  C   UNL     1      10.761  -0.186  -3.738  0.00  0.00    +0.066 A 
ATOM     28  C   UNL     1      10.914  -0.318  -5.125  0.00  0.00    +0.060 A 
ATOM     29  C   UNL     1       9.882  -0.873  -5.853  0.00  0.00    +0.118 A 
ATOM     30  C   UNL     1       8.706  -1.246  -5.220  0.00  0.00    +0.058 A 
ATOM     31  C   UNL     1       8.571  -1.138  -3.811  0.00  0.00    +0.044 A 
BRANCH  27  32
ATOM     32  C   UNL     1      11.797   0.608  -3.049  0.00  0.00    +0.244 C 
ATOM     33  N   UNL     1      11.354   1.749  -2.434  0.00  0.00    -0.325 N 
ATOM     34  O   UNL     1      12.982   0.329  -3.137  0.00  0.00    -0.270 OA
ATOM     35  H   UNL     1      12.034   2.351  -1.990  0.00  0.00    +0.145 HD
ATOM     36  H   UNL     1      10.375   1.991  -2.375  0.00  0.00    +0.145 HD
ENDBRANCH  27  32
BRANCH  29  37
ATOM     37  O   UNL     1       9.964  -1.034  -7.201  0.00  0.00    -0.507 OA
ATOM     38  H   UNL     1      10.862  -0.803  -7.496  0.00  0.00    +0.292 HD
ENDBRANCH  29  37
ENDBRANCH  20  22
ENDBRANCH   1  20
TORSDOF 8
