REMARK  Name = 
REMARK  10 active torsions:
REMARK  status: ('A' for Active; 'I' for Inactive)
REMARK    1  A    between atoms: C_1  and  C_2
REMARK    2  A    between atoms: C_2  and  C_3
REMARK    3  A    between atoms: C_2  and  C_4
REMARK    4  A    between atoms: C_6  and  C_7
REMARK    5  A    between atoms: N_9  and  C_10
REMARK    6  A    between atoms: C_14  and  C_15
REMARK    7  A    between atoms: C_15  and  C_16
REMARK    8  A    between atoms: C_15  and  N_17
REMARK    9  A    between atoms: N_17  and  C_18
REMARK   10  A    between atoms: C_23  and  C_24
REMARK                            x       y       z     vdW  Elec       q    Type
REMARK                         _______ _______ _______ _____ _____    ______ ____
ROOT
ATOM      1  C   UNL     1      -2.073  -4.778  -0.430  0.00  0.00    +0.034 A 
ATOM      2  C   UNL     1      -1.762  -5.927  -1.163  0.00  0.00    +0.023 A 
ATOM      3  C   UNL     1      -0.601  -6.648  -0.893  0.00  0.00    +0.002 A 
ATOM      4  C   UNL     1       0.220  -6.275   0.170  0.00  0.00    +0.005 A 
ATOM      5  C   UNL     1      -0.099  -5.164   0.970  0.00  0.00    -0.026 A 
ATOM      6  C   UNL     1      -1.225  -4.375   0.612  0.00  0.00    +0.028 A 
ENDROOT
BRANCH   1   9
ATOM      7  C   UNL     1      -3.857  -2.977  -0.385  0.00  0.00    +0.266 C 
ATOM      8  O   UNL     1      -5.022  -2.912   0.014  0.00  0.00    -0.268 OA
ATOM      9  N   UNL     1      -3.339  -4.215  -0.670  0.00  0.00    -0.280 N 
ATOM     10  H   UNL     1      -4.063  -4.870  -0.938  0.00  0.00    +0.155 HD
BRANCH   7  13
ATOM     11  C   UNL     1      -1.952  -0.144  -1.711  0.00  0.00    +0.066 A 
ATOM     12  C   UNL     1      -1.978  -1.548  -1.476  0.00  0.00    +0.057 A 
ATOM     13  C   UNL     1      -3.143  -1.791  -0.777  0.00  0.00    +0.121 A 
ATOM     14  N   UNL     1      -3.698  -0.552  -0.596  0.00  0.00    -0.272 N 
ATOM     15  N   UNL     1      -3.014   0.455  -1.158  0.00  0.00    -0.178 NA
ATOM     16  H   UNL     1      -4.581  -0.345  -0.143  0.00  0.00    +0.189 HD
BRANCH  11  18
ATOM     17  C   UNL     1       0.147   1.207  -1.495  0.00  0.00    +0.014 C 
ATOM     18  C   UNL     1      -0.936   0.689  -2.450  0.00  0.00    +0.033 C 
ATOM     19  C   UNL     1      -0.375  -0.001  -3.700  0.00  0.00    +0.014 C 
ENDBRANCH  11  18
ENDBRANCH   7  13
ENDBRANCH   1   9
BRANCH   5  20
ATOM     20  C   UNL     1       0.632  -4.919   2.298  0.00  0.00    +0.099 C 
ATOM     21  C   UNL     1       0.316  -6.044   3.288  0.00  0.00    +0.033 C 
BRANCH  20  22
ATOM     22  N   UNL     1       2.086  -4.857   2.142  0.00  0.00    -0.322 N 
ATOM     23  H   UNL     1       2.580  -5.676   1.828  0.00  0.00    +0.148 HD
BRANCH  22  24
ATOM     24  C   UNL     1       2.637  -3.599   1.907  0.00  0.00    +0.130 A 
ATOM     25  N   UNL     1       2.095  -2.564   2.571  0.00  0.00    -0.220 NA
ATOM     26  C   UNL     1       2.197  -1.371   1.993  0.00  0.00    +0.223 A 
ATOM     27  N   UNL     1       2.672  -1.163   0.769  0.00  0.00    -0.235 NA
ATOM     28  C   UNL     1       3.228  -2.221   0.141  0.00  0.00    +0.088 A 
ATOM     29  C   UNL     1       3.455  -2.264  -1.235  0.00  0.00    +0.063 A 
ATOM     30  C   UNL     1       4.436  -3.089  -1.801  0.00  0.00    +0.015 A 
ATOM     31  C   UNL     1       4.910  -4.151  -1.054  0.00  0.00    +0.002 A 
ATOM     32  C   UNL     1       4.323  -4.388   0.188  0.00  0.00    +0.013 A 
ATOM     33  C   UNL     1       3.448  -3.427   0.777  0.00  0.00    +0.041 A 
BRANCH  29  34
ATOM     34  C   UNL     1       2.159  -2.205  -1.980  0.00  0.00    +0.244 C 
ATOM     35  N   UNL     1       1.888  -3.226  -2.863  0.00  0.00    -0.325 N 
ATOM     36  O   UNL     1       1.290  -1.404  -1.716  0.00  0.00    -0.270 OA
ATOM     37  H   UNL     1       0.943  -3.276  -3.220  0.00  0.00    +0.145 HD
ATOM     38  H   UNL     1       2.491  -4.020  -3.013  0.00  0.00    +0.145 HD
ENDBRANCH  29  34
ENDBRANCH  22  24
ENDBRANCH  20  22
ENDBRANCH   5  20
TORSDOF 7
