
 OpenBabel10152419463D

 37 40  0  0  1  0  0  0  0  0999 V2000
   -1.3250   -8.1070  -25.5700 C   0  0  2  0  0  3  0  0  0  0  0  0
   -1.3070   -9.3910  -26.4060 C   0  0  0  0  0  1  0  0  0  0  0  0
    1.2800   -6.2400  -27.6830 C   0  0  0  0  0  0  0  0  0  0  0  0
    0.9330   -4.9100  -27.4390 C   0  0  0  0  0  3  0  0  0  0  0  0
   -0.2070   -4.6070  -26.6950 C   0  0  0  0  0  3  0  0  0  0  0  0
   -0.9610   -5.6310  -26.1220 C   0  0  0  0  0  3  0  0  0  0  0  0
   -0.5880   -6.9740  -26.2900 C   0  0  0  0  0  0  0  0  0  0  0  0
    0.5110   -7.2680  -27.1270 C   0  0  0  0  0  3  0  0  0  0  0  0
    3.5990   -7.1580  -27.9490 C   0  0  0  0  0  0  0  0  0  0  0  0
    4.7210   -6.7960  -28.2940 O   0  0  0  0  0  0  0  0  0  0  0  0
    2.4800   -6.4820  -28.3740 N   0  0  0  0  0  0  0  0  0  0  0  0
    2.6180   -5.9690  -29.2370 H   0  0  0  0  0  0  0  0  0  0  0  0
    2.8670  -10.9270  -26.1780 C   0  0  0  0  0  0  0  0  0  0  0  0
    2.6130   -9.7890  -25.4230 C   0  0  0  0  0  3  0  0  0  0  0  0
    2.9150   -8.5370  -25.9630 C   0  0  0  0  0  3  0  0  0  0  0  0
    3.4460   -8.4520  -27.2510 C   0  0  0  0  0  0  0  0  0  0  0  0
    3.6400   -9.6350  -27.9440 C   0  0  0  0  0  3  0  0  0  0  0  0
    3.3840  -10.8640  -27.4260 N   0  0  0  0  0  0  0  0  0  0  0  0
    3.1990  -12.6250  -24.5640 C   0  0  0  0  0  1  0  0  0  0  0  0
    2.5870  -12.2010  -25.7770 O   0  0  0  0  0  0  0  0  0  0  0  0
   -0.7300   -8.3730  -24.2660 N   0  0  0  0  0  0  0  0  0  0  0  0
    0.0700   -7.8460  -23.9620 H   0  0  0  0  0  0  0  0  0  0  0  0
   -1.5340   -9.0350  -23.3430 C   0  0  0  0  0  0  0  0  0  0  0  0
   -2.3240   -8.2600  -22.5800 N   0  0  0  0  0  0  0  0  0  0  0  0
   -2.7960   -8.8050  -21.4640 C   0  0  0  0  0  3  0  0  0  0  0  0
   -2.4760  -10.0150  -21.0030 N   0  0  0  0  0  0  0  0  0  0  0  0
   -1.7260  -10.8030  -21.7920 C   0  0  0  0  0  0  0  0  0  0  0  0
   -1.2780  -12.0530  -21.3590 C   0  0  0  0  0  0  0  0  0  0  0  0
   -0.5870  -12.9540  -22.1820 C   0  0  0  0  0  3  0  0  0  0  0  0
   -0.2780  -12.5840  -23.4800 C   0  0  0  0  0  3  0  0  0  0  0  0
   -0.5940  -11.2940  -23.9020 C   0  0  0  0  0  3  0  0  0  0  0  0
   -1.2960  -10.3900  -23.0550 C   0  0  0  0  0  0  0  0  0  0  0  0
   -1.3230  -12.3620  -19.9210 C   0  0  0  0  0  0  0  0  0  0  0  0
   -2.5800  -12.6610  -19.4600 N   0  0  0  0  0  0  0  0  0  0  0  0
   -0.3460  -12.3030  -19.1940 O   0  0  0  0  0  0  0  0  0  0  0  0
   -2.7030  -12.8520  -18.4760 H   0  0  0  0  0  0  0  0  0  0  0  0
   -3.3830  -12.7150  -20.0740 H   0  0  0  0  0  0  0  0  0  0  0  0
  1  2  1  6  0  0  0
  1 21  1  0  0  0  0
  3  4  2  0  0  0  0
  3  8  1  0  0  0  0
  4  5  1  0  0  0  0
  5  6  2  0  0  0  0
  7  6  1  0  0  0  0
  7  1  1  0  0  0  0
  8  7  2  0  0  0  0
  9 16  1  0  0  0  0
 10  9  2  0  0  0  0
 11  9  1  0  0  0  0
 11  3  1  0  0  0  0
 12 11  1  0  0  0  0
 13 20  1  0  0  0  0
 13 14  1  0  0  0  0
 15 14  2  0  0  0  0
 16 15  1  0  0  0  0
 17 18  1  0  0  0  0
 17 16  2  0  0  0  0
 18 13  2  0  0  0  0
 20 19  1  0  0  0  0
 21 22  1  0  0  0  0
 21 23  1  0  0  0  0
 23 32  2  0  0  0  0
 23 24  1  0  0  0  0
 24 25  2  0  0  0  0
 25 26  1  0  0  0  0
 27 28  1  0  0  0  0
 27 26  2  0  0  0  0
 28 33  1  0  0  0  0
 29 28  2  0  0  0  0
 30 29  1  0  0  0  0
 31 30  2  0  0  0  0
 31 32  1  0  0  0  0
 32 27  1  0  0  0  0
 33 34  1  0  0  0  0
 33 35  2  0  0  0  0
 34 36  1  0  0  0  0
 37 34  1  0  0  0  0
M  END
>  <minimizedAffinity>
-10.1439886

$$$$

 OpenBabel10152419463D

 37 40  0  0  1  0  0  0  0  0999 V2000
    1.9430  -12.1030  -24.6830 C   0  0  2  0  0  3  0  0  0  0  0  0
    1.8410  -10.8610  -23.7930 C   0  0  0  0  0  1  0  0  0  0  0  0
    4.0510  -10.2350  -27.2900 C   0  0  0  0  0  0  0  0  0  0  0  0
    3.9350  -11.0780  -28.3970 C   0  0  0  0  0  3  0  0  0  0  0  0
    3.2830  -12.3040  -28.2790 C   0  0  0  0  0  3  0  0  0  0  0  0
    2.6720  -12.6590  -27.0770 C   0  0  0  0  0  3  0  0  0  0  0  0
    2.7100  -11.7930  -25.9720 C   0  0  0  0  0  0  0  0  0  0  0  0
    3.4580  -10.6010  -26.0770 C   0  0  0  0  0  3  0  0  0  0  0  0
    4.0850   -7.8130  -27.9420 C   0  0  0  0  0  0  0  0  0  0  0  0
    4.7210   -7.0370  -28.6520 O   0  0  0  0  0  0  0  0  0  0  0  0
    4.6530   -8.9800  -27.4900 N   0  0  0  0  0  0  0  0  0  0  0  0
    5.6650   -8.9510  -27.4500 H   0  0  0  0  0  0  0  0  0  0  0  0
    0.5010   -6.2370  -26.3450 C   0  0  0  0  0  0  0  0  0  0  0  0
    1.2080   -7.1580  -25.5820 C   0  0  0  0  0  3  0  0  0  0  0  0
    2.3560   -7.7440  -26.1200 C   0  0  0  0  0  3  0  0  0  0  0  0
    2.7790   -7.3820  -27.3990 C   0  0  0  0  0  0  0  0  0  0  0  0
    2.0300   -6.4350  -28.0780 C   0  0  0  0  0  3  0  0  0  0  0  0
    0.8930   -5.8770  -27.5870 N   0  0  0  0  0  0  0  0  0  0  0  0
   -0.8620   -4.3120  -26.5310 C   0  0  0  0  0  1  0  0  0  0  0  0
   -0.6140   -5.5730  -25.9200 O   0  0  0  0  0  0  0  0  0  0  0  0
    0.6020  -12.5960  -24.9770 N   0  0  0  0  0  0  0  0  0  0  0  0
    0.3650  -13.5530  -24.7830 H   0  0  0  0  0  0  0  0  0  0  0  0
   -0.3940  -11.6340  -25.1160 C   0  0  0  0  0  0  0  0  0  0  0  0
   -0.5290  -11.0920  -26.3380 N   0  0  0  0  0  0  0  0  0  0  0  0
   -1.1820   -9.9370  -26.4090 C   0  0  0  0  0  3  0  0  0  0  0  0
   -1.6240   -9.2370  -25.3640 N   0  0  0  0  0  0  0  0  0  0  0  0
   -1.5290   -9.8050  -24.1490 C   0  0  0  0  0  0  0  0  0  0  0  0
   -1.8950   -9.1160  -22.9910 C   0  0  0  0  0  0  0  0  0  0  0  0
   -1.9160   -9.7020  -21.7170 C   0  0  0  0  0  3  0  0  0  0  0  0
   -1.5080  -11.0160  -21.5710 C   0  0  0  0  0  3  0  0  0  0  0  0
   -1.0120  -11.6920  -22.6840 C   0  0  0  0  0  3  0  0  0  0  0  0
   -0.9970  -11.0850  -23.9710 C   0  0  0  0  0  0  0  0  0  0  0  0
   -2.0480   -7.6540  -23.0560 C   0  0  0  0  0  0  0  0  0  0  0  0
   -0.8650   -6.9690  -22.9450 N   0  0  0  0  0  0  0  0  0  0  0  0
   -3.1310   -7.0990  -23.1430 O   0  0  0  0  0  0  0  0  0  0  0  0
   -0.8870   -5.9590  -22.9460 H   0  0  0  0  0  0  0  0  0  0  0  0
    0.0280   -7.4400  -22.8810 H   0  0  0  0  0  0  0  0  0  0  0  0
  1  2  1  1  0  0  0
  3  8  1  0  0  0  0
  4  5  1  0  0  0  0
  4  3  2  0  0  0  0
  5  6  2  0  0  0  0
  6  7  1  0  0  0  0
  7  1  1  0  0  0  0
  8  7  2  0  0  0  0
  9 11  1  0  0  0  0
  9 16  1  0  0  0  0
 10  9  2  0  0  0  0
 11 12  1  0  0  0  0
 11  3  1  0  0  0  0
 13 20  1  0  0  0  0
 13 14  1  0  0  0  0
 15 14  2  0  0  0  0
 16 15  1  0  0  0  0
 17 18  1  0  0  0  0
 17 16  2  0  0  0  0
 18 13  2  0  0  0  0
 19 20  1  0  0  0  0
 21 22  1  0  0  0  0
 21  1  1  0  0  0  0
 23 21  1  0  0  0  0
 23 32  1  0  0  0  0
 24 23  2  0  0  0  0
 25 24  1  0  0  0  0
 25 26  2  0  0  0  0
 26 27  1  0  0  0  0
 27 32  2  0  0  0  0
 27 28  1  0  0  0  0
 28 29  2  0  0  0  0
 29 30  1  0  0  0  0
 31 30  2  0  0  0  0
 32 31  1  0  0  0  0
 33 28  1  0  0  0  0
 33 34  1  0  0  0  0
 34 37  1  0  0  0  0
 35 33  2  0  0  0  0
 36 34  1  0  0  0  0
M  END
>  <minimizedAffinity>
-9.12416649

$$$$

 OpenBabel10152419463D

 37 40  0  0  1  0  0  0  0  0999 V2000
    1.9850  -12.2470  -25.5630 C   0  0  2  0  0  3  0  0  0  0  0  0
    3.0910  -12.9570  -24.7770 C   0  0  0  0  0  1  0  0  0  0  0  0
    2.6620   -8.5780  -26.4620 C   0  0  0  0  0  0  0  0  0  0  0  0
    2.5870   -7.9670  -25.2090 C   0  0  0  0  0  3  0  0  0  0  0  0
    2.2030   -8.7050  -24.0910 C   0  0  0  0  0  3  0  0  0  0  0  0
    1.9690  -10.0750  -24.2030 C   0  0  0  0  0  3  0  0  0  0  0  0
    2.1130  -10.7260  -25.4390 C   0  0  0  0  0  0  0  0  0  0  0  0
    2.4070   -9.9490  -26.5790 C   0  0  0  0  0  3  0  0  0  0  0  0
    2.4080   -7.0680  -28.4490 C   0  0  0  0  0  0  0  0  0  0  0  0
    2.7770   -6.9790  -29.6180 O   0  0  0  0  0  0  0  0  0  0  0  0
    3.1290   -7.8010  -27.5370 N   0  0  0  0  0  0  0  0  0  0  0  0
    4.1070   -7.9070  -27.7820 H   0  0  0  0  0  0  0  0  0  0  0  0
   -0.5310   -4.5000  -26.8210 C   0  0  0  0  0  0  0  0  0  0  0  0
   -0.7470   -5.8700  -26.7500 C   0  0  0  0  0  3  0  0  0  0  0  0
    0.1760   -6.7340  -27.3440 C   0  0  0  0  0  3  0  0  0  0  0  0
    1.3010   -6.2070  -27.9790 C   0  0  0  0  0  0  0  0  0  0  0  0
    1.4530   -4.8310  -27.9780 C   0  0  0  0  0  3  0  0  0  0  0  0
    0.5520   -3.9720  -27.4350 N   0  0  0  0  0  0  0  0  0  0  0  0
   -0.9510   -2.2020  -26.4470 C   0  0  0  0  0  1  0  0  0  0  0  0
   -1.3390   -3.5580  -26.2540 O   0  0  0  0  0  0  0  0  0  0  0  0
    0.6850  -12.7040  -25.0850 N   0  0  0  0  0  0  0  0  0  0  0  0
    0.6300  -13.4740  -24.4400 H   0  0  0  0  0  0  0  0  0  0  0  0
   -0.3700  -11.8060  -25.2070 C   0  0  0  0  0  0  0  0  0  0  0  0
   -0.6150  -11.3430  -26.4450 N   0  0  0  0  0  0  0  0  0  0  0  0
   -1.3350  -10.2300  -26.5330 C   0  0  0  0  0  3  0  0  0  0  0  0
   -1.7470   -9.4950  -25.4990 N   0  0  0  0  0  0  0  0  0  0  0  0
   -1.5410   -9.9860  -24.2650 C   0  0  0  0  0  0  0  0  0  0  0  0
   -1.8680   -9.2510  -23.1240 C   0  0  0  0  0  0  0  0  0  0  0  0
   -1.7740   -9.7630  -21.8220 C   0  0  0  0  0  3  0  0  0  0  0  0
   -1.2840  -11.0440  -21.6330 C   0  0  0  0  0  3  0  0  0  0  0  0
   -0.8250  -11.7550  -22.7390 C   0  0  0  0  0  3  0  0  0  0  0  0
   -0.9280  -11.2240  -24.0550 C   0  0  0  0  0  0  0  0  0  0  0  0
   -2.1080   -7.8060  -23.2570 C   0  0  0  0  0  0  0  0  0  0  0  0
   -0.9610   -7.0530  -23.2590 N   0  0  0  0  0  0  0  0  0  0  0  0
   -3.2240   -7.3150  -23.3050 O   0  0  0  0  0  0  0  0  0  0  0  0
   -1.0400   -6.0490  -23.3130 H   0  0  0  0  0  0  0  0  0  0  0  0
   -0.0400   -7.4720  -23.2270 H   0  0  0  0  0  0  0  0  0  0  0  0
  1  7  1  0  0  0  0
  1 21  1  0  0  0  0
  1  2  1  1  0  0  0
  3  4  1  0  0  0  0
  4  5  2  0  0  0  0
  6  5  1  0  0  0  0
  7  6  2  0  0  0  0
  8  3  2  0  0  0  0
  8  7  1  0  0  0  0
  9 16  1  0  0  0  0
  9 11  1  0  0  0  0
 10  9  2  0  0  0  0
 11  3  1  0  0  0  0
 12 11  1  0  0  0  0
 13 14  1  0  0  0  0
 13 20  1  0  0  0  0
 15 14  2  0  0  0  0
 16 17  2  0  0  0  0
 16 15  1  0  0  0  0
 17 18  1  0  0  0  0
 18 13  2  0  0  0  0
 19 20  1  0  0  0  0
 21 22  1  0  0  0  0
 23 21  1  0  0  0  0
 23 32  1  0  0  0  0
 24 23  2  0  0  0  0
 25 24  1  0  0  0  0
 25 26  2  0  0  0  0
 26 27  1  0  0  0  0
 27 32  2  0  0  0  0
 27 28  1  0  0  0  0
 28 29  2  0  0  0  0
 29 30  1  0  0  0  0
 31 30  2  0  0  0  0
 32 31  1  0  0  0  0
 33 28  1  0  0  0  0
 34 33  1  0  0  0  0
 34 37  1  0  0  0  0
 35 33  2  0  0  0  0
 36 34  1  0  0  0  0
M  END
>  <minimizedAffinity>
-9.00747108

$$$$

 OpenBabel10152419463D

 37 40  0  0  1  0  0  0  0  0999 V2000
    0.2560  -11.8670  -25.3850 C   0  0  2  0  0  3  0  0  0  0  0  0
   -0.1100  -10.9210  -26.5330 C   0  0  0  0  0  1  0  0  0  0  0  0
   -1.6060   -9.7010  -22.8210 C   0  0  0  0  0  0  0  0  0  0  0  0
   -1.3250  -10.3760  -21.6320 C   0  0  0  0  0  3  0  0  0  0  0  0
   -0.6410  -11.5900  -21.6590 C   0  0  0  0  0  3  0  0  0  0  0  0
   -0.1620  -12.0970  -22.8670 C   0  0  0  0  0  3  0  0  0  0  0  0
   -0.3660  -11.3970  -24.0660 C   0  0  0  0  0  0  0  0  0  0  0  0
   -1.1450  -10.2200  -24.0360 C   0  0  0  0  0  3  0  0  0  0  0  0
   -1.7440   -7.2090  -23.0750 C   0  0  0  0  0  0  0  0  0  0  0  0
   -2.0310   -6.2100  -22.4200 O   0  0  0  0  0  0  0  0  0  0  0  0
   -2.2310   -8.4460  -22.7240 N   0  0  0  0  0  0  0  0  0  0  0  0
   -3.0890   -8.4070  -22.1850 H   0  0  0  0  0  0  0  0  0  0  0  0
    0.1050   -6.3850  -26.7870 C   0  0  0  0  0  0  0  0  0  0  0  0
   -0.9300   -7.3110  -26.7630 C   0  0  0  0  0  3  0  0  0  0  0  0
   -1.5070   -7.6500  -25.5370 C   0  0  0  0  0  3  0  0  0  0  0  0
   -1.0470   -7.0430  -24.3690 C   0  0  0  0  0  0  0  0  0  0  0  0
   -0.0300   -6.1100  -24.4870 C   0  0  0  0  0  3  0  0  0  0  0  0
    0.5660   -5.7890  -25.6640 N   0  0  0  0  0  0  0  0  0  0  0  0
    0.9240   -4.5420  -28.0240 C   0  0  0  0  0  1  0  0  0  0  0  0
    0.7270   -5.9480  -27.9210 O   0  0  0  0  0  0  0  0  0  0  0  0
    1.7080  -11.9550  -25.2780 N   0  0  0  0  0  0  0  0  0  0  0  0
    2.1670  -12.8420  -25.3910 H   0  0  0  0  0  0  0  0  0  0  0  0
    2.4130  -10.7660  -25.4400 C   0  0  0  0  0  0  0  0  0  0  0  0
    2.0930   -9.7670  -24.6010 N   0  0  0  0  0  0  0  0  0  0  0  0
    2.4560   -8.5420  -24.9670 C   0  0  0  0  0  3  0  0  0  0  0  0
    3.0210   -8.2220  -26.1310 N   0  0  0  0  0  0  0  0  0  0  0  0
    3.3820   -9.2290  -26.9460 C   0  0  0  0  0  0  0  0  0  0  0  0
    3.9080   -8.9860  -28.2160 C   0  0  0  0  0  0  0  0  0  0  0  0
    4.3980   -9.9970  -29.0550 C   0  0  0  0  0  3  0  0  0  0  0  0
    4.3180  -11.3160  -28.6430 C   0  0  0  0  0  3  0  0  0  0  0  0
    3.6800  -11.6040  -27.4390 C   0  0  0  0  0  3  0  0  0  0  0  0
    3.1870  -10.5670  -26.5970 C   0  0  0  0  0  0  0  0  0  0  0  0
    3.7420   -7.6490  -28.8080 C   0  0  0  0  0  0  0  0  0  0  0  0
    4.3810   -6.6540  -28.1120 N   0  0  0  0  0  0  0  0  0  0  0  0
    3.0540   -7.4350  -29.7920 O   0  0  0  0  0  0  0  0  0  0  0  0
    4.2880   -5.7010  -28.4330 H   0  0  0  0  0  0  0  0  0  0  0  0
    4.9550   -6.8450  -27.3010 H   0  0  0  0  0  0  0  0  0  0  0  0
  1  2  1  6  0  0  0
  1 21  1  0  0  0  0
  1  7  1  0  0  0  0
  3 11  1  0  0  0  0
  3  4  1  0  0  0  0
  5  4  2  0  0  0  0
  6  5  1  0  0  0  0
  7  8  1  0  0  0  0
  7  6  2  0  0  0  0
  8  3  2  0  0  0  0
  9 11  1  0  0  0  0
  9 10  2  0  0  0  0
 11 12  1  0  0  0  0
 13 14  1  0  0  0  0
 13 18  2  0  0  0  0
 14 15  2  0  0  0  0
 15 16  1  0  0  0  0
 16  9  1  0  0  0  0
 17 16  2  0  0  0  0
 18 17  1  0  0  0  0
 19 20  1  0  0  0  0
 20 13  1  0  0  0  0
 22 21  1  0  0  0  0
 23 21  1  0  0  0  0
 23 24  1  0  0  0  0
 25 24  2  0  0  0  0
 26 25  1  0  0  0  0
 27 32  1  0  0  0  0
 27 26  2  0  0  0  0
 28 27  1  0  0  0  0
 29 30  1  0  0  0  0
 29 28  2  0  0  0  0
 30 31  2  0  0  0  0
 31 32  1  0  0  0  0
 32 23  2  0  0  0  0
 33 28  1  0  0  0  0
 33 34  1  0  0  0  0
 34 37  1  0  0  0  0
 35 33  2  0  0  0  0
 36 34  1  0  0  0  0
M  END
>  <minimizedAffinity>
-8.76076508

$$$$

 OpenBabel10152419463D

 37 40  0  0  1  0  0  0  0  0999 V2000
   -1.0260   -6.4620  -24.7280 C   0  0  2  0  0  3  0  0  0  0  0  0
    0.1340   -5.6550  -24.1380 C   0  0  0  0  0  1  0  0  0  0  0  0
   -1.5720   -9.1200  -22.0130 C   0  0  0  0  0  0  0  0  0  0  0  0
   -2.9550   -9.0560  -21.8360 C   0  0  0  0  0  3  0  0  0  0  0  0
   -3.7030   -8.0820  -22.4970 C   0  0  0  0  0  3  0  0  0  0  0  0
   -3.0840   -7.2180  -23.4000 C   0  0  0  0  0  3  0  0  0  0  0  0
   -1.7060   -7.3140  -23.6510 C   0  0  0  0  0  0  0  0  0  0  0  0
   -0.9470   -8.2390  -22.9020 C   0  0  0  0  0  3  0  0  0  0  0  0
   -0.6940  -11.4610  -21.8120 C   0  0  0  0  0  0  0  0  0  0  0  0
   -0.6780  -12.3960  -21.0140 O   0  0  0  0  0  0  0  0  0  0  0  0
   -0.8840  -10.1700  -21.3800 N   0  0  0  0  0  0  0  0  0  0  0  0
   -0.6220  -10.0220  -20.4120 H   0  0  0  0  0  0  0  0  0  0  0  0
    0.6750  -11.8650  -25.7920 C   0  0  0  0  0  0  0  0  0  0  0  0
   -0.6430  -11.4760  -25.5900 C   0  0  0  0  0  3  0  0  0  0  0  0
   -1.1360  -11.4060  -24.2850 C   0  0  0  0  0  3  0  0  0  0  0  0
   -0.2940  -11.7080  -23.2140 C   0  0  0  0  0  0  0  0  0  0  0  0
    1.0140  -12.0580  -23.5050 C   0  0  0  0  0  3  0  0  0  0  0  0
    1.5040  -12.1640  -24.7670 N   0  0  0  0  0  0  0  0  0  0  0  0
    2.5630  -12.5590  -27.0370 C   0  0  0  0  0  1  0  0  0  0  0  0
    1.2820  -11.9400  -27.0120 O   0  0  0  0  0  0  0  0  0  0  0  0
   -0.5290   -7.2940  -25.8170 N   0  0  0  0  0  0  0  0  0  0  0  0
   -1.0870   -8.0560  -26.1620 H   0  0  0  0  0  0  0  0  0  0  0  0
    0.4850   -6.7500  -26.5980 C   0  0  0  0  0  0  0  0  0  0  0  0
    0.1340   -5.7320  -27.4030 N   0  0  0  0  0  0  0  0  0  0  0  0
    0.9560   -5.4560  -28.4100 C   0  0  0  0  0  3  0  0  0  0  0  0
    2.0400   -6.1620  -28.7330 N   0  0  0  0  0  0  0  0  0  0  0  0
    2.4140   -7.1470  -27.8990 C   0  0  0  0  0  0  0  0  0  0  0  0
    3.4890   -7.9870  -28.1970 C   0  0  0  0  0  0  0  0  0  0  0  0
    3.9830   -8.9550  -27.3110 C   0  0  0  0  0  3  0  0  0  0  0  0
    3.3530   -9.1390  -26.0920 C   0  0  0  0  0  3  0  0  0  0  0  0
    2.1990   -8.4100  -25.8180 C   0  0  0  0  0  3  0  0  0  0  0  0
    1.7090   -7.4300  -26.7270 C   0  0  0  0  0  0  0  0  0  0  0  0
    3.9930   -8.0280  -29.5790 C   0  0  0  0  0  0  0  0  0  0  0  0
    4.5320   -6.8410  -30.0060 N   0  0  0  0  0  0  0  0  0  0  0  0
    3.8900   -9.0070  -30.2990 O   0  0  0  0  0  0  0  0  0  0  0  0
    4.8700   -6.7750  -30.9550 H   0  0  0  0  0  0  0  0  0  0  0  0
    4.6200   -6.0370  -29.3970 H   0  0  0  0  0  0  0  0  0  0  0  0
  1  2  1  1  0  0  0
  1  7  1  0  0  0  0
  3  4  1  0  0  0  0
  3 11  1  0  0  0  0
  5  4  2  0  0  0  0
  6  5  1  0  0  0  0
  7  6  2  0  0  0  0
  7  8  1  0  0  0  0
  8  3  2  0  0  0  0
  9 11  1  0  0  0  0
  9 10  2  0  0  0  0
 11 12  1  0  0  0  0
 13 14  1  0  0  0  0
 13 18  2  0  0  0  0
 14 15  2  0  0  0  0
 15 16  1  0  0  0  0
 16  9  1  0  0  0  0
 17 16  2  0  0  0  0
 18 17  1  0  0  0  0
 19 20  1  0  0  0  0
 20 13  1  0  0  0  0
 21  1  1  0  0  0  0
 22 21  1  0  0  0  0
 23 21  1  0  0  0  0
 24 23  2  0  0  0  0
 25 24  1  0  0  0  0
 26 25  2  0  0  0  0
 26 27  1  0  0  0  0
 27 32  1  0  0  0  0
 28 27  2  0  0  0  0
 28 29  1  0  0  0  0
 29 30  2  0  0  0  0
 30 31  1  0  0  0  0
 32 23  1  0  0  0  0
 32 31  2  0  0  0  0
 33 28  1  0  0  0  0
 34 33  1  0  0  0  0
 34 37  1  0  0  0  0
 35 33  2  0  0  0  0
 36 34  1  0  0  0  0
M  END
>  <minimizedAffinity>
-8.57076931

$$$$

 OpenBabel10152419463D

 37 40  0  0  1  0  0  0  0  0999 V2000
    0.2390   -7.8610  -23.8720 C   0  0  2  0  0  3  0  0  0  0  0  0
    0.1970   -6.3300  -23.9010 C   0  0  0  0  0  1  0  0  0  0  0  0
    2.8040   -8.0900  -26.7190 C   0  0  0  0  0  0  0  0  0  0  0  0
    3.2220   -9.4180  -26.6080 C   0  0  0  0  0  3  0  0  0  0  0  0
    2.7750  -10.2090  -25.5520 C   0  0  0  0  0  3  0  0  0  0  0  0
    1.8440   -9.7030  -24.6440 C   0  0  0  0  0  3  0  0  0  0  0  0
    1.3520   -8.3960  -24.7790 C   0  0  0  0  0  0  0  0  0  0  0  0
    1.8870   -7.5760  -25.7950 C   0  0  0  0  0  3  0  0  0  0  0  0
    2.4700   -6.7100  -28.7860 C   0  0  0  0  0  0  0  0  0  0  0  0
    2.8140   -6.6810  -29.9650 O   0  0  0  0  0  0  0  0  0  0  0  0
    3.2280   -7.3670  -27.8460 N   0  0  0  0  0  0  0  0  0  0  0  0
    4.2040   -7.4610  -28.1050 H   0  0  0  0  0  0  0  0  0  0  0  0
   -0.5450   -4.2000  -27.2070 C   0  0  0  0  0  0  0  0  0  0  0  0
   -0.8220   -5.5550  -27.3330 C   0  0  0  0  0  3  0  0  0  0  0  0
    0.1330   -6.3900  -27.9180 C   0  0  0  0  0  3  0  0  0  0  0  0
    1.3480   -5.8530  -28.3450 C   0  0  0  0  0  0  0  0  0  0  0  0
    1.5520   -4.4960  -28.1550 C   0  0  0  0  0  3  0  0  0  0  0  0
    0.6250   -3.6610  -27.6180 N   0  0  0  0  0  0  0  0  0  0  0  0
   -0.7690   -2.0970  -26.1450 C   0  0  0  0  0  1  0  0  0  0  0  0
   -1.3790   -3.2900  -26.6260 O   0  0  0  0  0  0  0  0  0  0  0  0
   -1.0610   -8.3850  -24.2730 N   0  0  0  0  0  0  0  0  0  0  0  0
   -1.2650   -8.5340  -25.2460 H   0  0  0  0  0  0  0  0  0  0  0  0
   -1.7930   -9.0420  -23.2880 C   0  0  0  0  0  0  0  0  0  0  0  0
   -2.5200   -8.2620  -22.4700 N   0  0  0  0  0  0  0  0  0  0  0  0
   -2.9070   -8.8020  -21.3190 C   0  0  0  0  0  3  0  0  0  0  0  0
   -2.5550  -10.0110  -20.8800 N   0  0  0  0  0  0  0  0  0  0  0  0
   -1.8690  -10.8050  -21.7200 C   0  0  0  0  0  0  0  0  0  0  0  0
   -1.3920  -12.0540  -21.3190 C   0  0  0  0  0  0  0  0  0  0  0  0
   -0.7690  -12.9590  -22.1890 C   0  0  0  0  0  3  0  0  0  0  0  0
   -0.5600  -12.5940  -23.5080 C   0  0  0  0  0  3  0  0  0  0  0  0
   -0.9040  -11.3060  -23.9090 C   0  0  0  0  0  3  0  0  0  0  0  0
   -1.5370  -10.3970  -23.0150 C   0  0  0  0  0  0  0  0  0  0  0  0
   -1.3280  -12.3580  -19.8810 C   0  0  0  0  0  0  0  0  0  0  0  0
   -2.5360  -12.7100  -19.3360 N   0  0  0  0  0  0  0  0  0  0  0  0
   -0.3070  -12.2510  -19.2200 O   0  0  0  0  0  0  0  0  0  0  0  0
   -2.5850  -12.9020  -18.3460 H   0  0  0  0  0  0  0  0  0  0  0  0
   -3.3750  -12.8030  -19.8950 H   0  0  0  0  0  0  0  0  0  0  0  0
  1  2  1  6  0  0  0
  3  4  2  0  0  0  0
  3  8  1  0  0  0  0
  4  5  1  0  0  0  0
  5  6  2  0  0  0  0
  7  6  1  0  0  0  0
  7  1  1  0  0  0  0
  8  7  2  0  0  0  0
  9 16  1  0  0  0  0
  9 11  1  0  0  0  0
 10  9  2  0  0  0  0
 11  3  1  0  0  0  0
 12 11  1  0  0  0  0
 13 20  1  0  0  0  0
 14 13  1  0  0  0  0
 15 14  2  0  0  0  0
 16 17  2  0  0  0  0
 16 15  1  0  0  0  0
 17 18  1  0  0  0  0
 18 13  2  0  0  0  0
 20 19  1  0  0  0  0
 21  1  1  0  0  0  0
 21 23  1  0  0  0  0
 22 21  1  0  0  0  0
 23 32  2  0  0  0  0
 23 24  1  0  0  0  0
 24 25  2  0  0  0  0
 25 26  1  0  0  0  0
 27 28  1  0  0  0  0
 27 26  2  0  0  0  0
 28 33  1  0  0  0  0
 29 28  2  0  0  0  0
 30 29  1  0  0  0  0
 31 30  2  0  0  0  0
 31 32  1  0  0  0  0
 32 27  1  0  0  0  0
 33 34  1  0  0  0  0
 33 35  2  0  0  0  0
 34 36  1  0  0  0  0
 37 34  1  0  0  0  0
M  END
>  <minimizedAffinity>
-8.5578146

$$$$

 OpenBabel10152419463D

 37 40  0  0  1  0  0  0  0  0999 V2000
    2.7570   -8.6230  -26.2380 C   0  0  2  0  0  3  0  0  0  0  0  0
    3.5830   -8.2650  -27.4780 C   0  0  0  0  0  1  0  0  0  0  0  0
    1.8110  -12.0960  -24.9060 C   0  0  0  0  0  0  0  0  0  0  0  0
    2.9360  -12.8440  -25.2570 C   0  0  0  0  0  3  0  0  0  0  0  0
    3.9490  -12.2700  -26.0250 C   0  0  0  0  0  3  0  0  0  0  0  0
    3.8810  -10.9230  -26.3770 C   0  0  0  0  0  3  0  0  0  0  0  0
    2.7950  -10.1310  -25.9710 C   0  0  0  0  0  0  0  0  0  0  0  0
    1.7320  -10.7500  -25.2790 C   0  0  0  0  0  3  0  0  0  0  0  0
    0.0370  -12.1270  -23.1320 C   0  0  0  0  0  0  0  0  0  0  0  0
   -0.2420  -12.7140  -22.0900 O   0  0  0  0  0  0  0  0  0  0  0  0
    0.8610  -12.7060  -24.0680 N   0  0  0  0  0  0  0  0  0  0  0  0
    0.8820  -13.7180  -24.0200 H   0  0  0  0  0  0  0  0  0  0  0  0
   -2.3310   -8.7110  -23.9090 C   0  0  0  0  0  0  0  0  0  0  0  0
   -2.0490   -9.5660  -24.9670 C   0  0  0  0  0  3  0  0  0  0  0  0
   -1.2100  -10.6610  -24.7480 C   0  0  0  0  0  3  0  0  0  0  0  0
   -0.6890  -10.8840  -23.4730 C   0  0  0  0  0  0  0  0  0  0  0  0
   -1.0460   -9.9980  -22.4700 C   0  0  0  0  0  3  0  0  0  0  0  0
   -1.8330   -8.9100  -22.6690 N   0  0  0  0  0  0  0  0  0  0  0  0
   -4.3030   -7.6530  -23.1420 C   0  0  0  0  0  1  0  0  0  0  0  0
   -3.1590   -7.6290  -23.9880 O   0  0  0  0  0  0  0  0  0  0  0  0
    1.3880   -8.1570  -26.4210 N   0  0  0  0  0  0  0  0  0  0  0  0
    0.6760   -8.7990  -26.7240 H   0  0  0  0  0  0  0  0  0  0  0  0
    1.0460   -6.9730  -25.7750 C   0  0  0  0  0  0  0  0  0  0  0  0
    0.5790   -7.0940  -24.5210 N   0  0  0  0  0  0  0  0  0  0  0  0
   -0.0980   -6.0600  -24.0340 C   0  0  0  0  0  3  0  0  0  0  0  0
   -0.4250   -4.9630  -24.7180 N   0  0  0  0  0  0  0  0  0  0  0  0
    0.0830   -4.8260  -25.9550 C   0  0  0  0  0  0  0  0  0  0  0  0
   -0.2680   -3.7500  -26.7730 C   0  0  0  0  0  0  0  0  0  0  0  0
    0.3180   -3.5060  -28.0230 C   0  0  0  0  0  3  0  0  0  0  0  0
    1.2590   -4.3950  -28.5130 C   0  0  0  0  0  3  0  0  0  0  0  0
    1.5360   -5.5480  -27.7830 C   0  0  0  0  0  3  0  0  0  0  0  0
    0.9340   -5.7830  -26.5140 C   0  0  0  0  0  0  0  0  0  0  0  0
   -1.4590   -2.9570  -26.4270 C   0  0  0  0  0  0  0  0  0  0  0  0
   -1.2450   -2.0470  -25.4230 N   0  0  0  0  0  0  0  0  0  0  0  0
   -2.5500   -3.1320  -26.9440 O   0  0  0  0  0  0  0  0  0  0  0  0
   -2.0210   -1.4870  -25.1030 H   0  0  0  0  0  0  0  0  0  0  0  0
   -0.3330   -1.9060  -25.0070 H   0  0  0  0  0  0  0  0  0  0  0  0
  1  2  1  6  0  0  0
  1  7  1  0  0  0  0
  3 11  1  0  0  0  0
  4  3  1  0  0  0  0
  5  4  2  0  0  0  0
  6  5  1  0  0  0  0
  6  7  2  0  0  0  0
  7  8  1  0  0  0  0
  8  3  2  0  0  0  0
  9 10  2  0  0  0  0
 11 12  1  0  0  0  0
 11  9  1  0  0  0  0
 13 18  2  0  0  0  0
 14 15  2  0  0  0  0
 14 13  1  0  0  0  0
 15 16  1  0  0  0  0
 16  9  1  0  0  0  0
 16 17  2  0  0  0  0
 18 17  1  0  0  0  0
 20 13  1  0  0  0  0
 20 19  1  0  0  0  0
 21  1  1  0  0  0  0
 21 23  1  0  0  0  0
 22 21  1  0  0  0  0
 23 24  1  0  0  0  0
 24 25  2  0  0  0  0
 26 25  1  0  0  0  0
 27 26  2  0  0  0  0
 28 33  1  0  0  0  0
 28 27  1  0  0  0  0
 29 28  2  0  0  0  0
 30 29  1  0  0  0  0
 30 31  2  0  0  0  0
 31 32  1  0  0  0  0
 32 27  1  0  0  0  0
 32 23  2  0  0  0  0
 33 34  1  0  0  0  0
 34 36  1  0  0  0  0
 34 37  1  0  0  0  0
 35 33  2  0  0  0  0
M  END
>  <minimizedAffinity>
-8.54775524

$$$$

 OpenBabel10152419463D

 37 40  0  0  1  0  0  0  0  0999 V2000
    1.5600  -11.3580  -26.3880 C   0  0  2  0  0  3  0  0  0  0  0  0
    0.3600  -10.4910  -26.7830 C   0  0  0  0  0  1  0  0  0  0  0  0
   -0.1600  -12.5530  -23.1710 C   0  0  0  0  0  0  0  0  0  0  0  0
    0.9340  -12.9560  -22.4050 C   0  0  0  0  0  3  0  0  0  0  0  0
    2.2150  -12.9580  -22.9560 C   0  0  0  0  0  3  0  0  0  0  0  0
    2.4200  -12.4820  -24.2500 C   0  0  0  0  0  3  0  0  0  0  0  0
    1.3440  -12.0000  -25.0140 C   0  0  0  0  0  0  0  0  0  0  0  0
    0.0420  -12.0960  -24.4780 C   0  0  0  0  0  3  0  0  0  0  0  0
   -1.8960  -11.5620  -21.6560 C   0  0  0  0  0  0  0  0  0  0  0  0
   -2.6370  -11.8880  -20.7320 O   0  0  0  0  0  0  0  0  0  0  0  0
   -1.4140  -12.5000  -22.5370 N   0  0  0  0  0  0  0  0  0  0  0  0
   -1.9910  -13.3310  -22.6020 H   0  0  0  0  0  0  0  0  0  0  0  0
   -1.6880   -7.3970  -22.3620 C   0  0  0  0  0  0  0  0  0  0  0  0
   -1.6960   -8.2480  -23.4610 C   0  0  0  0  0  3  0  0  0  0  0  0
   -1.6920   -9.6290  -23.2490 C   0  0  0  0  0  3  0  0  0  0  0  0
   -1.6990  -10.1240  -21.9440 C   0  0  0  0  0  0  0  0  0  0  0  0
   -1.7200   -9.2050  -20.9090 C   0  0  0  0  0  3  0  0  0  0  0  0
   -1.6910   -7.8600  -21.0920 N   0  0  0  0  0  0  0  0  0  0  0  0
   -0.7120   -5.4250  -23.2320 C   0  0  0  0  0  1  0  0  0  0  0  0
   -1.7230   -6.0350  -22.4370 O   0  0  0  0  0  0  0  0  0  0  0  0
    2.7680  -10.5420  -26.4000 N   0  0  0  0  0  0  0  0  0  0  0  0
    3.5970  -10.8790  -26.8580 H   0  0  0  0  0  0  0  0  0  0  0  0
    2.6000   -9.1830  -26.1510 C   0  0  0  0  0  0  0  0  0  0  0  0
    1.9930   -8.8620  -24.9960 N   0  0  0  0  0  0  0  0  0  0  0  0
    1.4840   -7.6380  -24.9090 C   0  0  0  0  0  3  0  0  0  0  0  0
    1.4480   -6.7480  -25.9010 N   0  0  0  0  0  0  0  0  0  0  0  0
    2.0970   -7.0540  -27.0370 C   0  0  0  0  0  0  0  0  0  0  0  0
    2.0480   -6.2180  -28.1540 C   0  0  0  0  0  0  0  0  0  0  0  0
    2.7940   -6.4400  -29.3200 C   0  0  0  0  0  3  0  0  0  0  0  0
    3.5890   -7.5700  -29.4080 C   0  0  0  0  0  3  0  0  0  0  0  0
    3.5600   -8.4930  -28.3650 C   0  0  0  0  0  3  0  0  0  0  0  0
    2.7980   -8.2540  -27.1870 C   0  0  0  0  0  0  0  0  0  0  0  0
    1.0050   -5.1810  -28.2170 C   0  0  0  0  0  0  0  0  0  0  0  0
   -0.2560   -5.6500  -27.9510 N   0  0  0  0  0  0  0  0  0  0  0  0
    1.2310   -4.0250  -28.5310 O   0  0  0  0  0  0  0  0  0  0  0  0
   -1.0340   -5.0090  -28.0070 H   0  0  0  0  0  0  0  0  0  0  0  0
   -0.4310   -6.6110  -27.6830 H   0  0  0  0  0  0  0  0  0  0  0  0
  1  2  1  1  0  0  0
  1  7  1  0  0  0  0
  3 11  1  0  0  0  0
  3  4  1  0  0  0  0
  5  4  2  0  0  0  0
  6  5  1  0  0  0  0
  7  8  1  0  0  0  0
  7  6  2  0  0  0  0
  8  3  2  0  0  0  0
  9 10  2  0  0  0  0
 11  9  1  0  0  0  0
 12 11  1  0  0  0  0
 13 18  2  0  0  0  0
 14 15  2  0  0  0  0
 14 13  1  0  0  0  0
 15 16  1  0  0  0  0
 16  9  1  0  0  0  0
 16 17  2  0  0  0  0
 18 17  1  0  0  0  0
 19 20  1  0  0  0  0
 20 13  1  0  0  0  0
 21  1  1  0  0  0  0
 21 23  1  0  0  0  0
 22 21  1  0  0  0  0
 23 24  1  0  0  0  0
 24 25  2  0  0  0  0
 26 25  1  0  0  0  0
 27 26  2  0  0  0  0
 28 27  1  0  0  0  0
 29 28  2  0  0  0  0
 30 29  1  0  0  0  0
 30 31  2  0  0  0  0
 31 32  1  0  0  0  0
 32 27  1  0  0  0  0
 32 23  2  0  0  0  0
 33 28  1  0  0  0  0
 33 34  1  0  0  0  0
 34 37  1  0  0  0  0
 35 33  2  0  0  0  0
 36 34  1  0  0  0  0
M  END
>  <minimizedAffinity>
-8.51246071

$$$$

 OpenBabel10152419463D

 37 40  0  0  1  0  0  0  0  0999 V2000
    2.8690   -7.7080  -27.0480 C   0  0  2  0  0  3  0  0  0  0  0  0
    4.0820   -6.7830  -27.1890 C   0  0  0  0  0  1  0  0  0  0  0  0
    3.6940  -11.4460  -26.7660 C   0  0  0  0  0  0  0  0  0  0  0  0
    4.1040  -11.7380  -28.0670 C   0  0  0  0  0  3  0  0  0  0  0  0
    4.0060  -10.7730  -29.0680 C   0  0  0  0  0  3  0  0  0  0  0  0
    3.5730   -9.4840  -28.7560 C   0  0  0  0  0  3  0  0  0  0  0  0
    3.2270   -9.1450  -27.4380 C   0  0  0  0  0  0  0  0  0  0  0  0
    3.2390  -10.1590  -26.4570 C   0  0  0  0  0  3  0  0  0  0  0  0
    3.4290  -12.4680  -24.4900 C   0  0  0  0  0  0  0  0  0  0  0  0
    4.1100  -12.9590  -23.5930 O   0  0  0  0  0  0  0  0  0  0  0  0
    3.8890  -12.4340  -25.7850 N   0  0  0  0  0  0  0  0  0  0  0  0
    4.5820  -13.1450  -25.9890 H   0  0  0  0  0  0  0  0  0  0  0  0
   -0.5220  -11.5140  -23.3210 C   0  0  0  0  0  0  0  0  0  0  0  0
   -0.3220  -12.6630  -24.0760 C   0  0  0  0  0  3  0  0  0  0  0  0
    0.9650  -12.9580  -24.5330 C   0  0  0  0  0  3  0  0  0  0  0  0
    2.0220  -12.1080  -24.2080 C   0  0  0  0  0  0  0  0  0  0  0  0
    1.7390  -11.0010  -23.4270 C   0  0  0  0  0  3  0  0  0  0  0  0
    0.4910  -10.6770  -23.0000 N   0  0  0  0  0  0  0  0  0  0  0  0
   -1.8620  -11.2910  -21.3850 C   0  0  0  0  0  1  0  0  0  0  0  0
   -1.7210  -11.1340  -22.7920 O   0  0  0  0  0  0  0  0  0  0  0  0
    1.7770   -7.1980  -27.8690 N   0  0  0  0  0  0  0  0  0  0  0  0
    1.7060   -7.4700  -28.8340 H   0  0  0  0  0  0  0  0  0  0  0  0
    0.6680   -6.7070  -27.1870 C   0  0  0  0  0  0  0  0  0  0  0  0
    0.7030   -5.4050  -26.8560 N   0  0  0  0  0  0  0  0  0  0  0  0
   -0.1310   -5.0100  -25.9000 C   0  0  0  0  0  3  0  0  0  0  0  0
   -0.9240   -5.8130  -25.1900 N   0  0  0  0  0  0  0  0  0  0  0  0
   -0.9910   -7.1050  -25.5560 C   0  0  0  0  0  0  0  0  0  0  0  0
   -1.7320   -8.0340  -24.8230 C   0  0  0  0  0  0  0  0  0  0  0  0
   -1.9210   -9.3640  -25.2260 C   0  0  0  0  0  3  0  0  0  0  0  0
   -1.3050   -9.8130  -26.3810 C   0  0  0  0  0  3  0  0  0  0  0  0
   -0.4520   -8.9500  -27.0650 C   0  0  0  0  0  3  0  0  0  0  0  0
   -0.2710   -7.6020  -26.6450 C   0  0  0  0  0  0  0  0  0  0  0  0
   -2.1520   -7.6840  -23.4570 C   0  0  0  0  0  0  0  0  0  0  0  0
   -1.1750   -7.8740  -22.5130 N   0  0  0  0  0  0  0  0  0  0  0  0
   -3.2810   -7.3140  -23.1780 O   0  0  0  0  0  0  0  0  0  0  0  0
   -1.3930   -7.6890  -21.5450 H   0  0  0  0  0  0  0  0  0  0  0  0
   -0.2390   -8.1740  -22.7570 H   0  0  0  0  0  0  0  0  0  0  0  0
  1  2  1  6  0  0  0
  3  8  1  0  0  0  0
  3 11  1  0  0  0  0
  4  3  2  0  0  0  0
  5  6  2  0  0  0  0
  5  4  1  0  0  0  0
  6  7  1  0  0  0  0
  7  1  1  0  0  0  0
  7  8  2  0  0  0  0
  9 16  1  0  0  0  0
  9 10  2  0  0  0  0
 11  9  1  0  0  0  0
 12 11  1  0  0  0  0
 13 18  2  0  0  0  0
 13 20  1  0  0  0  0
 14 13  1  0  0  0  0
 15 16  1  0  0  0  0
 15 14  2  0  0  0  0
 16 17  2  0  0  0  0
 17 18  1  0  0  0  0
 20 19  1  0  0  0  0
 21 23  1  0  0  0  0
 21  1  1  0  0  0  0
 22 21  1  0  0  0  0
 23 24  2  0  0  0  0
 23 32  1  0  0  0  0
 24 25  1  0  0  0  0
 25 26  2  0  0  0  0
 27 26  1  0  0  0  0
 27 28  1  0  0  0  0
 28 33  1  0  0  0  0
 29 28  2  0  0  0  0
 30 29  1  0  0  0  0
 31 32  1  0  0  0  0
 31 30  2  0  0  0  0
 32 27  2  0  0  0  0
 33 35  2  0  0  0  0
 33 34  1  0  0  0  0
 34 36  1  0  0  0  0
 37 34  1  0  0  0  0
M  END
>  <minimizedAffinity>
-8.4017849

$$$$
