
 OpenBabel10152419463D

 37 40  0  0  1  0  0  0  0  0999 V2000
   -1.0260   -6.4620  -24.7280 C   0  0  2  0  0  3  0  0  0  0  0  0
    0.1340   -5.6550  -24.1380 C   0  0  0  0  0  1  0  0  0  0  0  0
   -1.5720   -9.1200  -22.0130 C   0  0  0  0  0  0  0  0  0  0  0  0
   -2.9550   -9.0560  -21.8360 C   0  0  0  0  0  3  0  0  0  0  0  0
   -3.7030   -8.0820  -22.4970 C   0  0  0  0  0  3  0  0  0  0  0  0
   -3.0840   -7.2180  -23.4000 C   0  0  0  0  0  3  0  0  0  0  0  0
   -1.7060   -7.3140  -23.6510 C   0  0  0  0  0  0  0  0  0  0  0  0
   -0.9470   -8.2390  -22.9020 C   0  0  0  0  0  3  0  0  0  0  0  0
   -0.6940  -11.4610  -21.8120 C   0  0  0  0  0  0  0  0  0  0  0  0
   -0.6780  -12.3960  -21.0140 O   0  0  0  0  0  0  0  0  0  0  0  0
   -0.8840  -10.1700  -21.3800 N   0  0  0  0  0  0  0  0  0  0  0  0
   -0.6220  -10.0220  -20.4120 H   0  0  0  0  0  0  0  0  0  0  0  0
    0.6750  -11.8650  -25.7920 C   0  0  0  0  0  0  0  0  0  0  0  0
   -0.6430  -11.4760  -25.5900 C   0  0  0  0  0  3  0  0  0  0  0  0
   -1.1360  -11.4060  -24.2850 C   0  0  0  0  0  3  0  0  0  0  0  0
   -0.2940  -11.7080  -23.2140 C   0  0  0  0  0  0  0  0  0  0  0  0
    1.0140  -12.0580  -23.5050 C   0  0  0  0  0  3  0  0  0  0  0  0
    1.5040  -12.1640  -24.7670 N   0  0  0  0  0  0  0  0  0  0  0  0
    2.5630  -12.5590  -27.0370 C   0  0  0  0  0  1  0  0  0  0  0  0
    1.2820  -11.9400  -27.0120 O   0  0  0  0  0  0  0  0  0  0  0  0
   -0.5290   -7.2940  -25.8170 N   0  0  0  0  0  0  0  0  0  0  0  0
   -1.0870   -8.0560  -26.1620 H   0  0  0  0  0  0  0  0  0  0  0  0
    0.4850   -6.7500  -26.5980 C   0  0  0  0  0  0  0  0  0  0  0  0
    0.1340   -5.7320  -27.4030 N   0  0  0  0  0  0  0  0  0  0  0  0
    0.9560   -5.4560  -28.4100 C   0  0  0  0  0  3  0  0  0  0  0  0
    2.0400   -6.1620  -28.7330 N   0  0  0  0  0  0  0  0  0  0  0  0
    2.4140   -7.1470  -27.8990 C   0  0  0  0  0  0  0  0  0  0  0  0
    3.4890   -7.9870  -28.1970 C   0  0  0  0  0  0  0  0  0  0  0  0
    3.9830   -8.9550  -27.3110 C   0  0  0  0  0  3  0  0  0  0  0  0
    3.3530   -9.1390  -26.0920 C   0  0  0  0  0  3  0  0  0  0  0  0
    2.1990   -8.4100  -25.8180 C   0  0  0  0  0  3  0  0  0  0  0  0
    1.7090   -7.4300  -26.7270 C   0  0  0  0  0  0  0  0  0  0  0  0
    3.9930   -8.0280  -29.5790 C   0  0  0  0  0  0  0  0  0  0  0  0
    4.5320   -6.8410  -30.0060 N   0  0  0  0  0  0  0  0  0  0  0  0
    3.8900   -9.0070  -30.2990 O   0  0  0  0  0  0  0  0  0  0  0  0
    4.8700   -6.7750  -30.9550 H   0  0  0  0  0  0  0  0  0  0  0  0
    4.6200   -6.0370  -29.3970 H   0  0  0  0  0  0  0  0  0  0  0  0
  1  2  1  1  0  0  0
  1  7  1  0  0  0  0
  3  4  1  0  0  0  0
  3 11  1  0  0  0  0
  5  4  2  0  0  0  0
  6  5  1  0  0  0  0
  7  6  2  0  0  0  0
  7  8  1  0  0  0  0
  8  3  2  0  0  0  0
  9 11  1  0  0  0  0
  9 10  2  0  0  0  0
 11 12  1  0  0  0  0
 13 14  1  0  0  0  0
 13 18  2  0  0  0  0
 14 15  2  0  0  0  0
 15 16  1  0  0  0  0
 16  9  1  0  0  0  0
 17 16  2  0  0  0  0
 18 17  1  0  0  0  0
 19 20  1  0  0  0  0
 20 13  1  0  0  0  0
 21  1  1  0  0  0  0
 22 21  1  0  0  0  0
 23 21  1  0  0  0  0
 24 23  2  0  0  0  0
 25 24  1  0  0  0  0
 26 25  2  0  0  0  0
 26 27  1  0  0  0  0
 27 32  1  0  0  0  0
 28 27  2  0  0  0  0
 28 29  1  0  0  0  0
 29 30  2  0  0  0  0
 30 31  1  0  0  0  0
 32 23  1  0  0  0  0
 32 31  2  0  0  0  0
 33 28  1  0  0  0  0
 34 33  1  0  0  0  0
 34 37  1  0  0  0  0
 35 33  2  0  0  0  0
 36 34  1  0  0  0  0
M  END
>  <minimizedAffinity>
-8.57076931

$$$$
