
 OpenBabel10152419463D

 37 40  0  0  1  0  0  0  0  0999 V2000
    0.2390   -7.8610  -23.8720 C   0  0  2  0  0  3  0  0  0  0  0  0
    0.1970   -6.3300  -23.9010 C   0  0  0  0  0  1  0  0  0  0  0  0
    2.8040   -8.0900  -26.7190 C   0  0  0  0  0  0  0  0  0  0  0  0
    3.2220   -9.4180  -26.6080 C   0  0  0  0  0  3  0  0  0  0  0  0
    2.7750  -10.2090  -25.5520 C   0  0  0  0  0  3  0  0  0  0  0  0
    1.8440   -9.7030  -24.6440 C   0  0  0  0  0  3  0  0  0  0  0  0
    1.3520   -8.3960  -24.7790 C   0  0  0  0  0  0  0  0  0  0  0  0
    1.8870   -7.5760  -25.7950 C   0  0  0  0  0  3  0  0  0  0  0  0
    2.4700   -6.7100  -28.7860 C   0  0  0  0  0  0  0  0  0  0  0  0
    2.8140   -6.6810  -29.9650 O   0  0  0  0  0  0  0  0  0  0  0  0
    3.2280   -7.3670  -27.8460 N   0  0  0  0  0  0  0  0  0  0  0  0
    4.2040   -7.4610  -28.1050 H   0  0  0  0  0  0  0  0  0  0  0  0
   -0.5450   -4.2000  -27.2070 C   0  0  0  0  0  0  0  0  0  0  0  0
   -0.8220   -5.5550  -27.3330 C   0  0  0  0  0  3  0  0  0  0  0  0
    0.1330   -6.3900  -27.9180 C   0  0  0  0  0  3  0  0  0  0  0  0
    1.3480   -5.8530  -28.3450 C   0  0  0  0  0  0  0  0  0  0  0  0
    1.5520   -4.4960  -28.1550 C   0  0  0  0  0  3  0  0  0  0  0  0
    0.6250   -3.6610  -27.6180 N   0  0  0  0  0  0  0  0  0  0  0  0
   -0.7690   -2.0970  -26.1450 C   0  0  0  0  0  1  0  0  0  0  0  0
   -1.3790   -3.2900  -26.6260 O   0  0  0  0  0  0  0  0  0  0  0  0
   -1.0610   -8.3850  -24.2730 N   0  0  0  0  0  0  0  0  0  0  0  0
   -1.2650   -8.5340  -25.2460 H   0  0  0  0  0  0  0  0  0  0  0  0
   -1.7930   -9.0420  -23.2880 C   0  0  0  0  0  0  0  0  0  0  0  0
   -2.5200   -8.2620  -22.4700 N   0  0  0  0  0  0  0  0  0  0  0  0
   -2.9070   -8.8020  -21.3190 C   0  0  0  0  0  3  0  0  0  0  0  0
   -2.5550  -10.0110  -20.8800 N   0  0  0  0  0  0  0  0  0  0  0  0
   -1.8690  -10.8050  -21.7200 C   0  0  0  0  0  0  0  0  0  0  0  0
   -1.3920  -12.0540  -21.3190 C   0  0  0  0  0  0  0  0  0  0  0  0
   -0.7690  -12.9590  -22.1890 C   0  0  0  0  0  3  0  0  0  0  0  0
   -0.5600  -12.5940  -23.5080 C   0  0  0  0  0  3  0  0  0  0  0  0
   -0.9040  -11.3060  -23.9090 C   0  0  0  0  0  3  0  0  0  0  0  0
   -1.5370  -10.3970  -23.0150 C   0  0  0  0  0  0  0  0  0  0  0  0
   -1.3280  -12.3580  -19.8810 C   0  0  0  0  0  0  0  0  0  0  0  0
   -2.5360  -12.7100  -19.3360 N   0  0  0  0  0  0  0  0  0  0  0  0
   -0.3070  -12.2510  -19.2200 O   0  0  0  0  0  0  0  0  0  0  0  0
   -2.5850  -12.9020  -18.3460 H   0  0  0  0  0  0  0  0  0  0  0  0
   -3.3750  -12.8030  -19.8950 H   0  0  0  0  0  0  0  0  0  0  0  0
  1  2  1  6  0  0  0
  3  4  2  0  0  0  0
  3  8  1  0  0  0  0
  4  5  1  0  0  0  0
  5  6  2  0  0  0  0
  7  6  1  0  0  0  0
  7  1  1  0  0  0  0
  8  7  2  0  0  0  0
  9 16  1  0  0  0  0
  9 11  1  0  0  0  0
 10  9  2  0  0  0  0
 11  3  1  0  0  0  0
 12 11  1  0  0  0  0
 13 20  1  0  0  0  0
 14 13  1  0  0  0  0
 15 14  2  0  0  0  0
 16 17  2  0  0  0  0
 16 15  1  0  0  0  0
 17 18  1  0  0  0  0
 18 13  2  0  0  0  0
 20 19  1  0  0  0  0
 21  1  1  0  0  0  0
 21 23  1  0  0  0  0
 22 21  1  0  0  0  0
 23 32  2  0  0  0  0
 23 24  1  0  0  0  0
 24 25  2  0  0  0  0
 25 26  1  0  0  0  0
 27 28  1  0  0  0  0
 27 26  2  0  0  0  0
 28 33  1  0  0  0  0
 29 28  2  0  0  0  0
 30 29  1  0  0  0  0
 31 30  2  0  0  0  0
 31 32  1  0  0  0  0
 32 27  1  0  0  0  0
 33 34  1  0  0  0  0
 33 35  2  0  0  0  0
 34 36  1  0  0  0  0
 37 34  1  0  0  0  0
M  END
>  <minimizedAffinity>
-8.5578146

$$$$
