REMARK  Name = 
REMARK  9 active torsions:
REMARK  status: ('A' for Active; 'I' for Inactive)
REMARK    1  A    between atoms: C_1  and  O_2
REMARK    2  A    between atoms: O_2  and  C_3
REMARK    3  A    between atoms: C_6  and  C_7
REMARK    4  A    between atoms: N_9  and  C_10
REMARK    5  A    between atoms: C_14  and  C_15
REMARK    6  A    between atoms: C_15  and  C_16
REMARK    7  A    between atoms: C_15  and  N_17
REMARK    8  A    between atoms: N_17  and  C_18
REMARK    9  A    between atoms: C_23  and  C_24
REMARK                            x       y       z     vdW  Elec       q    Type
REMARK                         _______ _______ _______ _____ _____    ______ ____
ROOT
ATOM      1  C   UNL     1       6.276   0.733  -4.280  0.00  0.00    +0.099 C 
ATOM      2  C   UNL     1       7.514   0.783  -5.181  0.00  0.00    +0.033 C 
ENDROOT
BRANCH   1   7
ATOM      3  C   UNL     1       4.903   4.054  -2.931  0.00  0.00    +0.034 A 
ATOM      4  C   UNL     1       5.968   4.495  -2.144  0.00  0.00    +0.023 A 
ATOM      5  C   UNL     1       7.080   3.678  -1.946  0.00  0.00    +0.002 A 
ATOM      6  C   UNL     1       7.170   2.449  -2.599  0.00  0.00    +0.005 A 
ATOM      7  C   UNL     1       6.145   2.018  -3.456  0.00  0.00    -0.026 A 
ATOM      8  C   UNL     1       4.983   2.811  -3.569  0.00  0.00    +0.028 A 
BRANCH   3  11
ATOM      9  C   UNL     1       2.554   4.685  -3.545  0.00  0.00    +0.250 C 
ATOM     10  O   UNL     1       1.949   5.454  -4.288  0.00  0.00    -0.270 OA
ATOM     11  N   UNL     1       3.845   4.952  -3.155  0.00  0.00    -0.281 N 
ATOM     12  H   UNL     1       4.085   5.936  -3.191  0.00  0.00    +0.155 HD
BRANCH   9  16
ATOM     13  C   UNL     1       0.130   1.747  -1.708  0.00  0.00    +0.214 A 
ATOM     14  C   UNL     1       1.116   2.355  -0.941  0.00  0.00    +0.068 A 
ATOM     15  C   UNL     1       1.974   3.276  -1.547  0.00  0.00    +0.020 A 
ATOM     16  C   UNL     1       1.813   3.580  -2.899  0.00  0.00    +0.055 A 
ATOM     17  C   UNL     1       0.786   2.949  -3.581  0.00  0.00    +0.127 A 
ATOM     18  N   UNL     1      -0.038   2.027  -3.020  0.00  0.00    -0.221 NA
BRANCH  13  20
ATOM     19  C   UNL     1      -0.386   0.096  -0.094  0.00  0.00    +0.279 C 
ATOM     20  O   UNL     1      -0.787   0.858  -1.227  0.00  0.00    -0.480 OA
ENDBRANCH  13  20
ENDBRANCH   9  16
ENDBRANCH   3  11
ENDBRANCH   1   7
BRANCH   1  21
ATOM     21  N   UNL     1       6.357  -0.438  -3.415  0.00  0.00    -0.322 N 
ATOM     22  H   UNL     1       7.253  -0.832  -3.186  0.00  0.00    +0.148 HD
BRANCH  21  23
ATOM     23  C   UNL     1       5.245  -0.698  -2.620  0.00  0.00    +0.130 A 
ATOM     24  N   UNL     1       4.046  -0.529  -3.203  0.00  0.00    -0.220 NA
ATOM     25  C   UNL     1       3.002  -0.395  -2.392  0.00  0.00    +0.223 A 
ATOM     26  N   UNL     1       3.065  -0.323  -1.062  0.00  0.00    -0.235 NA
ATOM     27  C   UNL     1       4.258  -0.540  -0.482  0.00  0.00    +0.088 A 
ATOM     28  C   UNL     1       4.434  -0.408   0.897  0.00  0.00    +0.063 A 
ATOM     29  C   UNL     1       5.628  -0.729   1.558  0.00  0.00    +0.015 A 
ATOM     30  C   UNL     1       6.718  -1.152   0.817  0.00  0.00    +0.002 A 
ATOM     31  C   UNL     1       6.618  -1.169  -0.572  0.00  0.00    +0.013 A 
ATOM     32  C   UNL     1       5.399  -0.841  -1.230  0.00  0.00    +0.041 A 
BRANCH  28  33
ATOM     33  C   UNL     1       3.412   0.310   1.675  0.00  0.00    +0.244 C 
ATOM     34  N   UNL     1       3.602   1.668   1.716  0.00  0.00    -0.325 N 
ATOM     35  O   UNL     1       2.512  -0.253   2.276  0.00  0.00    -0.270 OA
ATOM     36  H   UNL     1       2.963   2.231   2.258  0.00  0.00    +0.145 HD
ATOM     37  H   UNL     1       4.348   2.125   1.207  0.00  0.00    +0.145 HD
ENDBRANCH  28  33
ENDBRANCH  21  23
ENDBRANCH   1  21
TORSDOF 7
