
 OpenBabel10152418413D

 36 39  0  0  0  0  0  0  0  0999 V2000
   -0.6520   -9.4700  -23.0590 C   0  0  0  0  0  0  0  0  0  0  0  0
   -1.0670  -10.5810  -22.3210 C   0  0  0  0  0  3  0  0  0  0  0  0
   -0.8810  -11.8630  -22.8270 C   0  0  0  0  0  3  0  0  0  0  0  0
   -0.2620  -12.0390  -24.0640 C   0  0  0  0  0  3  0  0  0  0  0  0
    0.2320  -10.9540  -24.8040 C   0  0  0  0  0  0  0  0  0  0  0  0
    0.0210   -9.6700  -24.2820 C   0  0  0  0  0  3  0  0  0  0  0  0
   -0.7720   -5.2850  -25.0050 C   0  0  0  0  0  0  0  0  0  0  0  0
   -0.7680   -4.8570  -23.6980 C   0  0  0  0  0  3  0  0  0  0  0  0
   -0.8970   -5.8510  -22.7420 N   0  0  0  0  0  0  0  0  0  0  0  0
   -0.9230   -7.0350  -23.3160 C   0  0  0  0  0  0  0  0  0  0  0  0
   -0.9910   -8.1850  -22.6060 N   0  0  0  0  0  0  0  0  0  0  0  0
   -0.9620   -6.9790  -25.0470 S   0  0  0  0  0  0  0  0  0  0  0  0
   -1.3070   -8.1220  -21.6470 H   0  0  0  0  0  0  0  0  0  0  0  0
   -0.6210   -4.5550  -26.2350 C   0  0  0  0  0  0  0  0  0  0  0  0
   -0.8950   -3.3820  -26.4180 O   0  0  0  0  0  0  0  0  0  0  0  0
   -0.1900   -5.4120  -27.2100 O   0  0  0  0  0  0  0  0  0  0  0  0
    1.3550   -4.5780  -28.9010 C   0  0  0  0  0  1  0  0  0  0  0  0
    1.1950   -5.2890  -27.5670 C   0  0  0  0  0  2  0  0  0  0  0  0
    0.8920  -11.1440  -26.1660 C   0  0  0  0  0  2  0  0  0  0  0  0
    2.3310  -11.3610  -26.0780 N   0  0  0  0  0  0  0  0  0  0  0  0
    2.6670  -12.3080  -26.1340 H   0  0  0  0  0  0  0  0  0  0  0  0
    3.1750  -10.3090  -26.4330 C   0  0  0  0  0  0  0  0  0  0  0  0
    3.0180   -9.1520  -25.7670 N   0  0  0  0  0  0  0  0  0  0  0  0
    3.4120   -8.0450  -26.3950 C   0  0  0  0  0  3  0  0  0  0  0  0
    3.8230   -7.9890  -27.6610 N   0  0  0  0  0  0  0  0  0  0  0  0
    4.0590   -9.1600  -28.2870 C   0  0  0  0  0  0  0  0  0  0  0  0
    4.4110   -9.2280  -29.6370 C   0  0  0  0  0  0  0  0  0  0  0  0
    4.8400  -10.4060  -30.2680 C   0  0  0  0  0  3  0  0  0  0  0  0
    4.8440  -11.5910  -29.5530 C   0  0  0  0  0  3  0  0  0  0  0  0
    4.3090  -11.5930  -28.2670 C   0  0  0  0  0  3  0  0  0  0  0  0
    3.8840  -10.3860  -27.6430 C   0  0  0  0  0  0  0  0  0  0  0  0
    4.0020   -8.1260  -30.5230 C   0  0  0  0  0  0  0  0  0  0  0  0
    4.6420   -6.9430  -30.2430 N   0  0  0  0  0  0  0  0  0  0  0  0
    3.1210   -8.2300  -31.3590 O   0  0  0  0  0  0  0  0  0  0  0  0
    4.4090   -6.1240  -30.7860 H   0  0  0  0  0  0  0  0  0  0  0  0
    5.3500   -6.8640  -29.5240 H   0  0  0  0  0  0  0  0  0  0  0  0
  1 11  1  0  0  0  0
  1  2  1  0  0  0  0
  3  2  2  0  0  0  0
  4  3  1  0  0  0  0
  5  6  1  0  0  0  0
  5  4  2  0  0  0  0
  6  1  2  0  0  0  0
  7  8  2  0  0  0  0
  8  9  1  0  0  0  0
 10  9  2  0  0  0  0
 10 11  1  0  0  0  0
 11 13  1  0  0  0  0
 12  7  1  0  0  0  0
 12 10  1  0  0  0  0
 14  7  1  0  0  0  0
 15 14  2  0  0  0  0
 16 14  1  0  0  0  0
 17 18  1  0  0  0  0
 18 16  1  0  0  0  0
 19 20  1  0  0  0  0
 19  5  1  0  0  0  0
 21 20  1  0  0  0  0
 22 20  1  0  0  0  0
 22 23  1  0  0  0  0
 24 23  2  0  0  0  0
 25 24  1  0  0  0  0
 26 25  2  0  0  0  0
 26 31  1  0  0  0  0
 27 26  1  0  0  0  0
 28 27  2  0  0  0  0
 28 29  1  0  0  0  0
 29 30  2  0  0  0  0
 30 31  1  0  0  0  0
 31 22  2  0  0  0  0
 32 33  1  0  0  0  0
 32 27  1  0  0  0  0
 33 36  1  0  0  0  0
 34 32  2  0  0  0  0
 35 33  1  0  0  0  0
M  END
>  <minimizedAffinity>
-7.23171616

$$$$
