
 OpenBabel10152418413D

 36 39  0  0  0  0  0  0  0  0999 V2000
    3.4610   -9.3200  -27.4600 C   0  0  0  0  0  0  0  0  0  0  0  0
    4.5430  -10.1170  -27.8420 C   0  0  0  0  0  3  0  0  0  0  0  0
    4.8250  -11.2890  -27.1480 C   0  0  0  0  0  3  0  0  0  0  0  0
    4.0150  -11.6770  -26.0810 C   0  0  0  0  0  3  0  0  0  0  0  0
    2.8790  -10.9430  -25.7110 C   0  0  0  0  0  0  0  0  0  0  0  0
    2.6220   -9.7570  -26.4150 C   0  0  0  0  0  3  0  0  0  0  0  0
    0.5810   -5.7740  -26.7940 C   0  0  0  0  0  0  0  0  0  0  0  0
    0.9770   -5.4270  -28.0650 C   0  0  0  0  0  3  0  0  0  0  0  0
    2.0080   -6.1820  -28.5990 N   0  0  0  0  0  0  0  0  0  0  0  0
    2.3420   -7.1480  -27.7690 C   0  0  0  0  0  0  0  0  0  0  0  0
    3.2890   -8.0670  -28.0680 N   0  0  0  0  0  0  0  0  0  0  0  0
    1.5350   -7.0730  -26.2380 S   0  0  0  0  0  0  0  0  0  0  0  0
    3.9370   -7.8420  -28.8110 H   0  0  0  0  0  0  0  0  0  0  0  0
   -0.4640   -5.2480  -25.9570 C   0  0  0  0  0  0  0  0  0  0  0  0
   -0.7500   -5.6260  -24.8330 O   0  0  0  0  0  0  0  0  0  0  0  0
   -1.1540   -4.2960  -26.6540 O   0  0  0  0  0  0  0  0  0  0  0  0
   -1.4460   -2.3330  -25.2380 C   0  0  0  0  0  1  0  0  0  0  0  0
   -0.7280   -2.9430  -26.4310 C   0  0  0  0  0  2  0  0  0  0  0  0
    2.0030  -11.3560  -24.5330 C   0  0  0  0  0  2  0  0  0  0  0  0
    0.7150  -11.9030  -24.9430 N   0  0  0  0  0  0  0  0  0  0  0  0
    0.6200  -12.9040  -24.9760 H   0  0  0  0  0  0  0  0  0  0  0  0
   -0.4180  -11.1090  -24.7690 C   0  0  0  0  0  0  0  0  0  0  0  0
   -0.7010  -10.2310  -25.7470 N   0  0  0  0  0  0  0  0  0  0  0  0
   -1.4170   -9.1630  -25.4000 C   0  0  0  0  0  3  0  0  0  0  0  0
   -1.7570   -8.8430  -24.1510 N   0  0  0  0  0  0  0  0  0  0  0  0
   -1.5460   -9.7700  -23.1960 C   0  0  0  0  0  0  0  0  0  0  0  0
   -1.7830   -9.5170  -21.8420 C   0  0  0  0  0  0  0  0  0  0  0  0
   -1.7490  -10.5090  -20.8510 C   0  0  0  0  0  3  0  0  0  0  0  0
   -1.3840  -11.7970  -21.1980 C   0  0  0  0  0  3  0  0  0  0  0  0
   -0.9480  -12.0370  -22.4980 C   0  0  0  0  0  3  0  0  0  0  0  0
   -0.9950  -11.0180  -23.4910 C   0  0  0  0  0  0  0  0  0  0  0  0
   -1.7310   -8.1220  -21.3730 C   0  0  0  0  0  0  0  0  0  0  0  0
   -1.0850   -7.2820  -22.2470 N   0  0  0  0  0  0  0  0  0  0  0  0
   -2.1410   -7.7680  -20.2810 O   0  0  0  0  0  0  0  0  0  0  0  0
   -0.9810   -6.3090  -21.9990 H   0  0  0  0  0  0  0  0  0  0  0  0
   -0.7220   -7.5970  -23.1380 H   0  0  0  0  0  0  0  0  0  0  0  0
  1  6  1  0  0  0  0
  2  1  2  0  0  0  0
  2  3  1  0  0  0  0
  3  4  2  0  0  0  0
  4  5  1  0  0  0  0
  5 19  1  0  0  0  0
  6  5  2  0  0  0  0
  7 12  1  0  0  0  0
  7 14  1  0  0  0  0
  8  7  2  0  0  0  0
  9  8  1  0  0  0  0
  9 10  2  0  0  0  0
 10 12  1  0  0  0  0
 11 10  1  0  0  0  0
 11  1  1  0  0  0  0
 13 11  1  0  0  0  0
 14 15  2  0  0  0  0
 16 18  1  0  0  0  0
 16 14  1  0  0  0  0
 18 17  1  0  0  0  0
 20 22  1  0  0  0  0
 20 19  1  0  0  0  0
 21 20  1  0  0  0  0
 22 31  1  0  0  0  0
 23 24  1  0  0  0  0
 23 22  2  0  0  0  0
 24 25  2  0  0  0  0
 25 26  1  0  0  0  0
 26 27  1  0  0  0  0
 27 32  1  0  0  0  0
 27 28  2  0  0  0  0
 29 28  1  0  0  0  0
 30 29  2  0  0  0  0
 31 26  2  0  0  0  0
 31 30  1  0  0  0  0
 32 34  2  0  0  0  0
 33 35  1  0  0  0  0
 33 32  1  0  0  0  0
 36 33  1  0  0  0  0
M  END
>  <minimizedAffinity>
-7.89525127

$$$$
