
 OpenBabel10152418413D

 36 39  0  0  0  0  0  0  0  0999 V2000
   -0.6480   -5.9180  -25.0370 C   0  0  0  0  0  0  0  0  0  0  0  0
   -0.2520   -5.2230  -23.8920 C   0  0  0  0  0  3  0  0  0  0  0  0
   -0.6690   -5.6520  -22.6370 C   0  0  0  0  0  3  0  0  0  0  0  0
   -1.4690   -6.7890  -22.5210 C   0  0  0  0  0  3  0  0  0  0  0  0
   -1.8300   -7.5550  -23.6390 C   0  0  0  0  0  0  0  0  0  0  0  0
   -1.4100   -7.0960  -24.8970 C   0  0  0  0  0  3  0  0  0  0  0  0
    2.4280   -6.9190  -28.3310 C   0  0  0  0  0  0  0  0  0  0  0  0
    2.1390   -5.6440  -28.7600 C   0  0  0  0  0  3  0  0  0  0  0  0
    1.0940   -5.0150  -28.1050 N   0  0  0  0  0  0  0  0  0  0  0  0
    0.6400   -5.7780  -27.1330 C   0  0  0  0  0  0  0  0  0  0  0  0
   -0.3490   -5.3800  -26.2990 N   0  0  0  0  0  0  0  0  0  0  0  0
    1.3510   -7.3560  -27.0840 S   0  0  0  0  0  0  0  0  0  0  0  0
   -0.9310   -4.6100  -26.6020 H   0  0  0  0  0  0  0  0  0  0  0  0
    3.4520   -7.8410  -28.7440 C   0  0  0  0  0  0  0  0  0  0  0  0
    3.8760   -8.7870  -28.1010 O   0  0  0  0  0  0  0  0  0  0  0  0
    3.9470   -7.4430  -29.9540 O   0  0  0  0  0  0  0  0  0  0  0  0
    4.3540   -9.2090  -31.5850 C   0  0  0  0  0  1  0  0  0  0  0  0
    3.4050   -8.1270  -31.0940 C   0  0  0  0  0  2  0  0  0  0  0  0
   -2.7200   -8.7870  -23.5170 C   0  0  0  0  0  2  0  0  0  0  0  0
   -2.2640   -9.7210  -22.4950 N   0  0  0  0  0  0  0  0  0  0  0  0
   -2.8130   -9.8030  -21.6550 H   0  0  0  0  0  0  0  0  0  0  0  0
   -1.4550  -10.7840  -22.8940 C   0  0  0  0  0  0  0  0  0  0  0  0
   -0.7540  -11.4110  -21.9320 N   0  0  0  0  0  0  0  0  0  0  0  0
    0.3560  -12.0390  -22.3170 C   0  0  0  0  0  3  0  0  0  0  0  0
    0.8810  -11.9840  -23.5410 N   0  0  0  0  0  0  0  0  0  0  0  0
    0.1290  -11.4290  -24.5120 C   0  0  0  0  0  0  0  0  0  0  0  0
    0.6060  -11.2400  -25.8120 C   0  0  0  0  0  0  0  0  0  0  0  0
   -0.2050  -10.8400  -26.8850 C   0  0  0  0  0  3  0  0  0  0  0  0
   -1.5330  -10.5320  -26.6480 C   0  0  0  0  0  3  0  0  0  0  0  0
   -1.9870  -10.5160  -25.3320 C   0  0  0  0  0  3  0  0  0  0  0  0
   -1.1510  -10.9310  -24.2580 C   0  0  0  0  0  0  0  0  0  0  0  0
    2.0600  -11.1210  -26.0120 C   0  0  0  0  0  0  0  0  0  0  0  0
    2.6210  -10.0930  -25.2940 N   0  0  0  0  0  0  0  0  0  0  0  0
    2.6850  -11.8080  -26.8010 O   0  0  0  0  0  0  0  0  0  0  0  0
    3.6120   -9.9210  -25.3860 H   0  0  0  0  0  0  0  0  0  0  0  0
    2.0820   -9.5110  -24.6650 H   0  0  0  0  0  0  0  0  0  0  0  0
  1  6  2  0  0  0  0
  1  2  1  0  0  0  0
  2  3  2  0  0  0  0
  3  4  1  0  0  0  0
  5 19  1  0  0  0  0
  5  4  2  0  0  0  0
  6  5  1  0  0  0  0
  7 12  1  0  0  0  0
  8  7  2  0  0  0  0
  8  9  1  0  0  0  0
  9 10  2  0  0  0  0
 10 12  1  0  0  0  0
 10 11  1  0  0  0  0
 11  1  1  0  0  0  0
 13 11  1  0  0  0  0
 14  7  1  0  0  0  0
 14 15  2  0  0  0  0
 16 14  1  0  0  0  0
 17 18  1  0  0  0  0
 18 16  1  0  0  0  0
 19 20  1  0  0  0  0
 20 21  1  0  0  0  0
 22 20  1  0  0  0  0
 22 23  1  0  0  0  0
 24 23  2  0  0  0  0
 25 24  1  0  0  0  0
 26 31  1  0  0  0  0
 26 25  2  0  0  0  0
 27 26  1  0  0  0  0
 28 29  1  0  0  0  0
 28 27  2  0  0  0  0
 29 30  2  0  0  0  0
 30 31  1  0  0  0  0
 31 22  2  0  0  0  0
 32 27  1  0  0  0  0
 32 33  1  0  0  0  0
 33 36  1  0  0  0  0
 34 32  2  0  0  0  0
 35 33  1  0  0  0  0
M  END
>  <minimizedAffinity>
-6.26171064

$$$$
