
 OpenBabel10152418413D

 36 39  0  0  0  0  0  0  0  0999 V2000
   -1.6770  -10.2750  -22.8000 C   0  0  0  0  0  0  0  0  0  0  0  0
   -1.7700  -10.7470  -21.4890 C   0  0  0  0  0  3  0  0  0  0  0  0
   -1.6980   -9.8590  -20.4210 C   0  0  0  0  0  3  0  0  0  0  0  0
   -1.5520   -8.4930  -20.6620 C   0  0  0  0  0  3  0  0  0  0  0  0
   -1.5250   -7.9710  -21.9640 C   0  0  0  0  0  0  0  0  0  0  0  0
   -1.5850   -8.8860  -23.0250 C   0  0  0  0  0  3  0  0  0  0  0  0
    1.6600  -11.5370  -25.7290 C   0  0  0  0  0  0  0  0  0  0  0  0
    0.6060  -12.0390  -26.4570 C   0  0  0  0  0  3  0  0  0  0  0  0
   -0.6270  -12.0050  -25.8260 N   0  0  0  0  0  0  0  0  0  0  0  0
   -0.5240  -11.4120  -24.6560 C   0  0  0  0  0  0  0  0  0  0  0  0
   -1.5920  -11.1990  -23.8540 N   0  0  0  0  0  0  0  0  0  0  0  0
    1.1020  -11.0230  -24.2020 S   0  0  0  0  0  0  0  0  0  0  0  0
   -2.4230  -11.7490  -24.0290 H   0  0  0  0  0  0  0  0  0  0  0  0
    3.0480  -11.3760  -26.0710 C   0  0  0  0  0  0  0  0  0  0  0  0
    3.9890  -11.9730  -25.5760 O   0  0  0  0  0  0  0  0  0  0  0  0
    3.1640  -10.3760  -26.9960 O   0  0  0  0  0  0  0  0  0  0  0  0
    3.8540   -8.0690  -26.6170 C   0  0  0  0  0  1  0  0  0  0  0  0
    4.2950   -9.5090  -26.8240 C   0  0  0  0  0  2  0  0  0  0  0  0
   -1.3460   -6.4800  -22.2290 C   0  0  0  0  0  2  0  0  0  0  0  0
   -0.2490   -6.1910  -23.1450 N   0  0  0  0  0  0  0  0  0  0  0  0
    0.6880   -6.2170  -22.7770 H   0  0  0  0  0  0  0  0  0  0  0  0
   -0.4600   -6.4010  -24.5060 C   0  0  0  0  0  0  0  0  0  0  0  0
   -0.2080   -7.6340  -24.9780 N   0  0  0  0  0  0  0  0  0  0  0  0
    0.0920   -7.7270  -26.2730 C   0  0  0  0  0  3  0  0  0  0  0  0
    0.2820   -6.6910  -27.0900 N   0  0  0  0  0  0  0  0  0  0  0  0
   -0.0590   -5.4710  -26.6310 C   0  0  0  0  0  0  0  0  0  0  0  0
    0.1740   -4.3040  -27.3650 C   0  0  0  0  0  0  0  0  0  0  0  0
   -0.3310   -3.0460  -27.0010 C   0  0  0  0  0  3  0  0  0  0  0  0
   -1.0290   -2.9180  -25.8130 C   0  0  0  0  0  3  0  0  0  0  0  0
   -1.1040   -4.0180  -24.9640 C   0  0  0  0  0  3  0  0  0  0  0  0
   -0.5910   -5.2870  -25.3530 C   0  0  0  0  0  0  0  0  0  0  0  0
    1.2570   -4.3100  -28.3610 C   0  0  0  0  0  0  0  0  0  0  0  0
    2.3000   -5.1360  -28.0210 N   0  0  0  0  0  0  0  0  0  0  0  0
    1.2670   -3.5870  -29.3430 O   0  0  0  0  0  0  0  0  0  0  0  0
    3.0990   -5.1880  -28.6350 H   0  0  0  0  0  0  0  0  0  0  0  0
    2.2910   -5.7080  -27.1850 H   0  0  0  0  0  0  0  0  0  0  0  0
  1  2  1  0  0  0  0
  2  3  2  0  0  0  0
  4  3  1  0  0  0  0
  5  4  2  0  0  0  0
  6  1  2  0  0  0  0
  6  5  1  0  0  0  0
  7 12  1  0  0  0  0
  8  9  1  0  0  0  0
  8  7  2  0  0  0  0
  9 10  2  0  0  0  0
 10 12  1  0  0  0  0
 10 11  1  0  0  0  0
 11  1  1  0  0  0  0
 13 11  1  0  0  0  0
 14  7  1  0  0  0  0
 14 15  2  0  0  0  0
 16 18  1  0  0  0  0
 16 14  1  0  0  0  0
 18 17  1  0  0  0  0
 19  5  1  0  0  0  0
 20 21  1  0  0  0  0
 20 19  1  0  0  0  0
 22 20  1  0  0  0  0
 23 22  1  0  0  0  0
 24 23  2  0  0  0  0
 25 26  2  0  0  0  0
 25 24  1  0  0  0  0
 26 31  1  0  0  0  0
 27 28  2  0  0  0  0
 27 26  1  0  0  0  0
 28 29  1  0  0  0  0
 29 30  2  0  0  0  0
 31 30  1  0  0  0  0
 31 22  2  0  0  0  0
 32 33  1  0  0  0  0
 32 27  1  0  0  0  0
 33 36  1  0  0  0  0
 34 32  2  0  0  0  0
 35 33  1  0  0  0  0
M  END
>  <minimizedAffinity>
-6.94612455

$$$$
