
 OpenBabel10152418413D

 36 39  0  0  0  0  0  0  0  0999 V2000
    2.5500   -6.7320  -28.7920 C   0  0  0  0  0  0  0  0  0  0  0  0
    2.7300   -6.9780  -30.1560 C   0  0  0  0  0  3  0  0  0  0  0  0
    3.6420   -7.9400  -30.5760 C   0  0  0  0  0  3  0  0  0  0  0  0
    4.3630   -8.6730  -29.6330 C   0  0  0  0  0  3  0  0  0  0  0  0
    4.1600   -8.5060  -28.2550 C   0  0  0  0  0  0  0  0  0  0  0  0
    3.2470   -7.5200  -27.8540 C   0  0  0  0  0  3  0  0  0  0  0  0
   -0.3840   -5.9990  -25.3040 C   0  0  0  0  0  0  0  0  0  0  0  0
   -0.8330   -4.9800  -26.1120 C   0  0  0  0  0  3  0  0  0  0  0  0
   -0.0800   -4.7420  -27.2500 N   0  0  0  0  0  0  0  0  0  0  0  0
    0.8910   -5.6240  -27.3460 C   0  0  0  0  0  0  0  0  0  0  0  0
    1.7470   -5.6510  -28.3940 N   0  0  0  0  0  0  0  0  0  0  0  0
    1.0320   -6.6710  -25.9740 S   0  0  0  0  0  0  0  0  0  0  0  0
    1.8130   -4.8170  -28.9630 H   0  0  0  0  0  0  0  0  0  0  0  0
   -0.9250   -6.5440  -24.0880 C   0  0  0  0  0  0  0  0  0  0  0  0
   -0.5130   -6.3410  -22.9580 O   0  0  0  0  0  0  0  0  0  0  0  0
   -1.9410   -7.4040  -24.4000 O   0  0  0  0  0  0  0  0  0  0  0  0
   -4.1150   -7.7580  -23.3560 C   0  0  0  0  0  1  0  0  0  0  0  0
   -2.6150   -7.9910  -23.2770 C   0  0  0  0  0  2  0  0  0  0  0  0
    4.9620   -9.2930  -27.2240 C   0  0  0  0  0  2  0  0  0  0  0  0
    4.1710   -9.6820  -26.0620 N   0  0  0  0  0  0  0  0  0  0  0  0
    4.0320   -8.9970  -25.3380 H   0  0  0  0  0  0  0  0  0  0  0  0
    3.2510  -10.7180  -26.2140 C   0  0  0  0  0  0  0  0  0  0  0  0
    3.3180  -11.4300  -27.3530 N   0  0  0  0  0  0  0  0  0  0  0  0
    2.1980  -12.0370  -27.7430 C   0  0  0  0  0  3  0  0  0  0  0  0
    1.0060  -11.8900  -27.1650 N   0  0  0  0  0  0  0  0  0  0  0  0
    0.9690  -11.2490  -25.9800 C   0  0  0  0  0  0  0  0  0  0  0  0
   -0.2300  -10.9610  -25.3230 C   0  0  0  0  0  0  0  0  0  0  0  0
   -0.2950  -10.4650  -24.0120 C   0  0  0  0  0  3  0  0  0  0  0  0
    0.8790  -10.1610  -23.3470 C   0  0  0  0  0  3  0  0  0  0  0  0
    2.0800  -10.2470  -24.0450 C   0  0  0  0  0  3  0  0  0  0  0  0
    2.1260  -10.7580  -25.3720 C   0  0  0  0  0  0  0  0  0  0  0  0
   -1.4570  -10.8430  -26.1280 C   0  0  0  0  0  0  0  0  0  0  0  0
   -1.3010  -10.0470  -27.2360 N   0  0  0  0  0  0  0  0  0  0  0  0
   -2.5250  -11.3300  -25.7960 O   0  0  0  0  0  0  0  0  0  0  0  0
   -2.0970   -9.8900  -27.8380 H   0  0  0  0  0  0  0  0  0  0  0  0
   -0.4150   -9.6240  -27.4830 H   0  0  0  0  0  0  0  0  0  0  0  0
  1 11  1  0  0  0  0
  1  6  1  0  0  0  0
  2  1  2  0  0  0  0
  3  2  1  0  0  0  0
  3  4  2  0  0  0  0
  4  5  1  0  0  0  0
  5  6  2  0  0  0  0
  5 19  1  0  0  0  0
  7 14  1  0  0  0  0
  8  7  2  0  0  0  0
  9  8  1  0  0  0  0
 10  9  2  0  0  0  0
 10 12  1  0  0  0  0
 11 10  1  0  0  0  0
 12  7  1  0  0  0  0
 13 11  1  0  0  0  0
 14 15  2  0  0  0  0
 16 14  1  0  0  0  0
 16 18  1  0  0  0  0
 17 18  1  0  0  0  0
 19 20  1  0  0  0  0
 20 21  1  0  0  0  0
 22 20  1  0  0  0  0
 22 31  1  0  0  0  0
 23 22  2  0  0  0  0
 24 23  1  0  0  0  0
 24 25  2  0  0  0  0
 25 26  1  0  0  0  0
 26 31  2  0  0  0  0
 26 27  1  0  0  0  0
 27 28  2  0  0  0  0
 28 29  1  0  0  0  0
 30 29  2  0  0  0  0
 31 30  1  0  0  0  0
 32 34  2  0  0  0  0
 32 27  1  0  0  0  0
 33 32  1  0  0  0  0
 35 33  1  0  0  0  0
 36 33  1  0  0  0  0
M  END
>  <minimizedAffinity>
-6.17098188

$$$$
