
 OpenBabel10152418103D

 38 41  0  0  1  0  0  0  0  0999 V2000
    3.8350   -9.3050  -26.1930 C   0  0  0  0  0  1  0  0  0  0  0  0
    3.8000  -10.2070  -27.4310 C   0  0  2  0  0  3  0  0  0  0  0  0
    3.5230   -9.3770  -28.6780 C   0  0  0  0  0  0  0  0  0  0  0  0
    3.8510   -9.8500  -29.9550 C   0  0  0  0  0  3  0  0  0  0  0  0
    3.9510   -8.9570  -31.0130 C   0  0  0  0  0  3  0  0  0  0  0  0
    3.6350   -7.6120  -30.8220 C   0  0  0  0  0  3  0  0  0  0  0  0
    3.0790   -7.1640  -29.6260 C   0  0  0  0  0  0  0  0  0  0  0  0
    3.0490   -8.0560  -28.5480 C   0  0  0  0  0  3  0  0  0  0  0  0
    2.5850   -5.8630  -29.3870 N   0  0  0  0  0  0  0  0  0  0  0  0
    1.7310   -5.3220  -28.4530 C   0  0  0  0  0  0  0  0  0  0  0  0
    1.3920   -4.1440  -28.5460 O   0  0  0  0  0  0  0  0  0  0  0  0
    2.9000   -5.1430  -30.0280 H   0  0  0  0  0  0  0  0  0  0  0  0
    1.1940   -6.1130  -27.3340 C   0  0  0  0  0  0  0  0  0  0  0  0
    2.1030   -6.6750  -26.4280 C   0  0  0  0  0  3  0  0  0  0  0  0
    1.6250   -7.3010  -25.2780 C   0  0  0  0  0  3  0  0  0  0  0  0
    0.2520   -7.3570  -25.0470 C   0  0  0  0  0  0  0  0  0  0  0  0
   -0.1900   -7.8940  -23.9000 F   0  0  0  0  0  0  0  0  0  0  0  0
   -0.6500   -6.8310  -25.9730 C   0  0  0  0  0  0  0  0  0  0  0  0
   -0.1880   -6.2460  -27.1490 C   0  0  0  0  0  3  0  0  0  0  0  0
   -1.9840   -6.8400  -25.6800 O   0  0  0  0  0  0  0  0  0  0  0  0
   -2.4520   -6.2510  -26.2950 H   0  0  0  0  0  0  0  0  0  0  0  0
    2.8660  -11.3310  -27.1980 N   0  0  0  0  0  0  0  0  0  0  0  0
    3.2390  -12.2230  -27.5160 H   0  0  0  0  0  0  0  0  0  0  0  0
    2.1990  -11.5770  -26.0090 C   0  0  0  0  0  0  0  0  0  0  0  0
    3.0250  -12.0040  -25.0410 N   0  0  0  0  0  0  0  0  0  0  0  0
    2.5220  -12.0390  -23.8090 C   0  0  0  0  0  3  0  0  0  0  0  0
    1.2890  -11.6670  -23.4480 N   0  0  0  0  0  0  0  0  0  0  0  0
    0.4290  -11.2950  -24.4260 C   0  0  0  0  0  0  0  0  0  0  0  0
   -0.8840  -10.8600  -24.1500 C   0  0  0  0  0  0  0  0  0  0  0  0
   -1.7810  -10.5310  -25.1850 C   0  0  0  0  0  3  0  0  0  0  0  0
   -1.3960  -10.6410  -26.5120 C   0  0  0  0  0  3  0  0  0  0  0  0
   -0.0950  -11.0310  -26.8020 C   0  0  0  0  0  3  0  0  0  0  0  0
    0.8380  -11.3080  -25.7740 C   0  0  0  0  0  0  0  0  0  0  0  0
   -1.4140  -10.6750  -22.7600 C   0  0  0  0  0  0  0  0  0  0  0  0
   -1.4000  -11.7420  -21.9110 N   0  0  0  0  0  0  0  0  0  0  0  0
   -1.8420   -9.5950  -22.3740 O   0  0  0  0  0  0  0  0  0  0  0  0
   -1.7470  -11.6250  -20.9710 H   0  0  0  0  0  0  0  0  0  0  0  0
   -1.0430  -12.6440  -22.2110 H   0  0  0  0  0  0  0  0  0  0  0  0
  2 22  1  0  0  0  0
  2  1  1  1  0  0  0
  3  8  1  0  0  0  0
  3  2  1  0  0  0  0
  4  3  2  0  0  0  0
  5  6  2  0  0  0  0
  5  4  1  0  0  0  0
  6  7  1  0  0  0  0
  7  9  1  0  0  0  0
  7  8  2  0  0  0  0
  9 10  1  0  0  0  0
 10 13  1  0  0  0  0
 11 10  2  0  0  0  0
 12  9  1  0  0  0  0
 13 19  2  0  0  0  0
 13 14  1  0  0  0  0
 14 15  2  0  0  0  0
 15 16  1  0  0  0  0
 16 17  1  0  0  0  0
 18 20  1  0  0  0  0
 18 16  2  0  0  0  0
 19 18  1  0  0  0  0
 21 20  1  0  0  0  0
 22 24  1  0  0  0  0
 23 22  1  0  0  0  0
 24 33  2  0  0  0  0
 24 25  1  0  0  0  0
 25 26  2  0  0  0  0
 26 27  1  0  0  0  0
 28 29  1  0  0  0  0
 28 27  2  0  0  0  0
 29 34  1  0  0  0  0
 30 29  2  0  0  0  0
 31 30  1  0  0  0  0
 32 31  2  0  0  0  0
 32 33  1  0  0  0  0
 33 28  1  0  0  0  0
 34 36  2  0  0  0  0
 34 35  1  0  0  0  0
 35 37  1  0  0  0  0
 38 35  1  0  0  0  0
M  END
>  <minimizedAffinity>
-6.81721449

$$$$
