
 OpenBabel10152418103D

 38 41  0  0  1  0  0  0  0  0999 V2000
    0.9510   -5.6080  -28.6030 C   0  0  0  0  0  1  0  0  0  0  0  0
    2.1770   -5.9540  -27.7520 C   0  0  2  0  0  3  0  0  0  0  0  0
    3.0030   -7.0350  -28.4380 C   0  0  0  0  0  0  0  0  0  0  0  0
    3.0770   -7.1190  -29.8350 C   0  0  0  0  0  3  0  0  0  0  0  0
    3.4980   -8.2990  -30.4300 C   0  0  0  0  0  3  0  0  0  0  0  0
    3.9340   -9.3620  -29.6390 C   0  0  0  0  0  3  0  0  0  0  0  0
    4.0950   -9.2190  -28.2630 C   0  0  0  0  0  0  0  0  0  0  0  0
    3.6020   -8.0520  -27.6670 C   0  0  0  0  0  3  0  0  0  0  0  0
    4.6710  -10.1770  -27.4000 N   0  0  0  0  0  0  0  0  0  0  0  0
    4.1680  -11.0080  -26.4240 C   0  0  0  0  0  0  0  0  0  0  0  0
    4.9370  -11.6860  -25.7450 O   0  0  0  0  0  0  0  0  0  0  0  0
    5.6730  -10.3040  -27.4820 H   0  0  0  0  0  0  0  0  0  0  0  0
    2.7260  -11.1120  -26.1530 C   0  0  0  0  0  0  0  0  0  0  0  0
    1.9270  -11.7930  -27.0830 C   0  0  0  0  0  3  0  0  0  0  0  0
    0.5880  -12.0390  -26.7840 C   0  0  0  0  0  3  0  0  0  0  0  0
    0.0650  -11.6070  -25.5680 C   0  0  0  0  0  0  0  0  0  0  0  0
   -1.2030  -11.9190  -25.2620 F   0  0  0  0  0  0  0  0  0  0  0  0
    0.8540  -10.8950  -24.6630 C   0  0  0  0  0  0  0  0  0  0  0  0
    2.1800  -10.5990  -24.9690 C   0  0  0  0  0  3  0  0  0  0  0  0
    0.3280  -10.5500  -23.4510 O   0  0  0  0  0  0  0  0  0  0  0  0
    1.0460  -10.2700  -22.8580 H   0  0  0  0  0  0  0  0  0  0  0  0
    1.7490   -6.2660  -26.3700 N   0  0  0  0  0  0  0  0  0  0  0  0
    1.8740   -5.4810  -25.7350 H   0  0  0  0  0  0  0  0  0  0  0  0
    0.5520   -6.8720  -26.0260 C   0  0  0  0  0  0  0  0  0  0  0  0
    0.1850   -7.8110  -26.9130 N   0  0  0  0  0  0  0  0  0  0  0  0
   -0.8190   -8.6070  -26.5490 C   0  0  0  0  0  3  0  0  0  0  0  0
   -1.4700   -8.5720  -25.3810 N   0  0  0  0  0  0  0  0  0  0  0  0
   -1.1490   -7.5900  -24.5070 C   0  0  0  0  0  0  0  0  0  0  0  0
   -1.7580   -7.4810  -23.2390 C   0  0  0  0  0  0  0  0  0  0  0  0
   -1.4500   -6.4180  -22.3660 C   0  0  0  0  0  3  0  0  0  0  0  0
   -0.5440   -5.4390  -22.7420 C   0  0  0  0  0  3  0  0  0  0  0  0
    0.0930   -5.5490  -23.9700 C   0  0  0  0  0  3  0  0  0  0  0  0
   -0.1600   -6.6420  -24.8350 C   0  0  0  0  0  0  0  0  0  0  0  0
   -2.7310   -8.4860  -22.7050 C   0  0  0  0  0  0  0  0  0  0  0  0
   -2.2480   -9.6650  -22.2170 N   0  0  0  0  0  0  0  0  0  0  0  0
   -3.9360   -8.2680  -22.6870 O   0  0  0  0  0  0  0  0  0  0  0  0
   -2.8960  -10.3450  -21.8480 H   0  0  0  0  0  0  0  0  0  0  0  0
   -1.2520   -9.8610  -22.2180 H   0  0  0  0  0  0  0  0  0  0  0  0
  2  1  1  6  0  0  0
  2 22  1  0  0  0  0
  3  2  1  0  0  0  0
  3  8  1  0  0  0  0
  4  3  2  0  0  0  0
  5  4  1  0  0  0  0
  5  6  2  0  0  0  0
  6  7  1  0  0  0  0
  7  8  2  0  0  0  0
  7  9  1  0  0  0  0
  9 10  1  0  0  0  0
 10 13  1  0  0  0  0
 10 11  2  0  0  0  0
 12  9  1  0  0  0  0
 13 19  1  0  0  0  0
 14 15  1  0  0  0  0
 14 13  2  0  0  0  0
 15 16  2  0  0  0  0
 16 17  1  0  0  0  0
 16 18  1  0  0  0  0
 18 20  1  0  0  0  0
 19 18  2  0  0  0  0
 20 21  1  0  0  0  0
 22 24  1  0  0  0  0
 22 23  1  0  0  0  0
 24 33  1  0  0  0  0
 25 26  1  0  0  0  0
 25 24  2  0  0  0  0
 26 27  2  0  0  0  0
 27 28  1  0  0  0  0
 28 29  1  0  0  0  0
 29 34  1  0  0  0  0
 29 30  2  0  0  0  0
 31 30  1  0  0  0  0
 32 31  2  0  0  0  0
 33 28  2  0  0  0  0
 33 32  1  0  0  0  0
 34 36  2  0  0  0  0
 34 35  1  0  0  0  0
 35 37  1  0  0  0  0
 38 35  1  0  0  0  0
M  END
>  <minimizedAffinity>
-8.5734129

$$$$
