REMARK  Name = 
REMARK  8 active torsions:
REMARK  status: ('A' for Active; 'I' for Inactive)
REMARK    1  A    between atoms: C_1  and  C_2
REMARK    2  A    between atoms: C_2  and  N_3
REMARK    3  A    between atoms: C_2  and  C_17
REMARK    4  A    between atoms: N_3  and  C_4
REMARK    5  A    between atoms: C_9  and  C_10
REMARK    6  A    between atoms: C_21  and  N_22
REMARK    7  A    between atoms: C_23  and  C_25
REMARK    8  A    between atoms: C_30  and  O_31
REMARK                            x       y       z     vdW  Elec       q    Type
REMARK                         _______ _______ _______ _____ _____    ______ ____
ROOT
ATOM      1  C   UNL     1       1.190   0.062   0.018  0.00  0.00    +0.033 C 
ATOM      2  C   UNL     1       0.463  -0.190   1.343  0.00  0.00    +0.099 C 
ENDROOT
BRANCH   2   3
ATOM      3  C   UNL     1      -1.043  -0.082   1.144  0.00  0.00    -0.026 A 
ATOM      4  C   UNL     1      -1.661   1.155   0.918  0.00  0.00    +0.005 A 
ATOM      5  C   UNL     1      -3.027   1.287   1.121  0.00  0.00    +0.002 A 
ATOM      6  C   UNL     1      -3.793   0.171   1.458  0.00  0.00    +0.023 A 
ATOM      7  C   UNL     1      -3.244  -1.109   1.455  0.00  0.00    +0.034 A 
ATOM      8  C   UNL     1      -1.855  -1.221   1.318  0.00  0.00    +0.028 A 
BRANCH   7   9
ATOM      9  N   UNL     1      -3.963  -2.311   1.630  0.00  0.00    -0.281 N 
ATOM     10  C   UNL     1      -5.301  -2.617   1.734  0.00  0.00    +0.248 C 
ATOM     11  O   UNL     1      -5.645  -3.770   1.988  0.00  0.00    -0.270 OA
ATOM     12  H   UNL     1      -3.406  -3.155   1.707  0.00  0.00    +0.155 HD
BRANCH  10  13
ATOM     13  C   UNL     1      -6.351  -1.602   1.559  0.00  0.00    +0.041 A 
ATOM     14  C   UNL     1      -7.197  -1.334   2.644  0.00  0.00    +0.016 A 
ATOM     15  C   UNL     1      -8.102  -0.277   2.562  0.00  0.00    +0.043 A 
ATOM     16  C   UNL     1      -8.151   0.497   1.405  0.00  0.00    +0.165 A 
ATOM     17  F   UNL     1      -8.971   1.557   1.370  0.00  0.00    -0.202 F 
ATOM     18  C   UNL     1      -7.334   0.201   0.312  0.00  0.00    +0.153 A 
ATOM     19  C   UNL     1      -6.460  -0.882   0.362  0.00  0.00    +0.061 A 
BRANCH  18  20
ATOM     20  O   UNL     1      -7.358   1.024  -0.777  0.00  0.00    -0.504 OA
ATOM     21  H   UNL     1      -6.593   0.828  -1.344  0.00  0.00    +0.292 HD
ENDBRANCH  18  20
ENDBRANCH  10  13
ENDBRANCH   7   9
ENDBRANCH   2   3
BRANCH   2  22
ATOM     22  N   UNL     1       1.028   0.688   2.392  0.00  0.00    -0.322 N 
ATOM     23  H   UNL     1       1.828   1.225   2.065  0.00  0.00    +0.148 HD
BRANCH  22  24
ATOM     24  C   UNL     1       0.289   1.528   3.209  0.00  0.00    +0.130 A 
ATOM     25  N   UNL     1       0.622   2.818   3.046  0.00  0.00    -0.220 NA
ATOM     26  C   UNL     1      -0.188   3.713   3.607  0.00  0.00    +0.223 A 
ATOM     27  N   UNL     1      -1.307   3.446   4.290  0.00  0.00    -0.235 NA
ATOM     28  C   UNL     1      -1.617   2.147   4.513  0.00  0.00    +0.088 A 
ATOM     29  C   UNL     1      -2.787   1.759   5.199  0.00  0.00    +0.063 A 
ATOM     30  C   UNL     1      -3.063   0.404   5.470  0.00  0.00    +0.015 A 
ATOM     31  C   UNL     1      -2.177  -0.587   5.078  0.00  0.00    +0.002 A 
ATOM     32  C   UNL     1      -1.039  -0.227   4.369  0.00  0.00    +0.013 A 
ATOM     33  C   UNL     1      -0.775   1.124   4.036  0.00  0.00    +0.041 A 
BRANCH  29  34
ATOM     34  C   UNL     1      -3.835   2.729   5.652  0.00  0.00    +0.244 C 
ATOM     35  N   UNL     1      -3.620   4.061   5.450  0.00  0.00    -0.325 N 
ATOM     36  O   UNL     1      -4.873   2.353   6.182  0.00  0.00    -0.270 OA
ATOM     37  H   UNL     1      -4.324   4.721   5.745  0.00  0.00    +0.145 HD
ATOM     38  H   UNL     1      -2.768   4.391   5.007  0.00  0.00    +0.145 HD
ENDBRANCH  29  34
ENDBRANCH  22  24
ENDBRANCH   2  22
TORSDOF 7
