REMARK  Name = 
REMARK  6 active torsions:
REMARK  status: ('A' for Active; 'I' for Inactive)
REMARK    1  A    between atoms: C_3  and  C_5
REMARK    2  A    between atoms: C_5  and  C_6
REMARK    3  A    between atoms: C_6  and  C_7
REMARK    4  A    between atoms: C_11  and  N_12
REMARK    5  A    between atoms: C_21  and  O_22
REMARK    6  A    between atoms: O_22  and  C_23
REMARK                            x       y       z     vdW  Elec       q    Type
REMARK                         _______ _______ _______ _____ _____    ______ ____
ROOT
ATOM      1 CL   UNL     1       1.009  -0.087   0.048  0.00  0.00    -0.145 Cl
ATOM      2  H   UNL     1       2.339  -0.087   0.048  0.00  0.00    +0.145 HD
ENDROOT
TORSDOF 0
REMARK  Name = 
REMARK  6 active torsions:
REMARK  status: ('A' for Active; 'I' for Inactive)
REMARK    1  A    between atoms: C_3  and  C_5
REMARK    2  A    between atoms: C_5  and  C_6
REMARK    3  A    between atoms: C_6  and  C_7
REMARK    4  A    between atoms: C_11  and  N_12
REMARK    5  A    between atoms: C_21  and  O_22
REMARK    6  A    between atoms: O_22  and  C_23
REMARK                            x       y       z     vdW  Elec       q    Type
REMARK                         _______ _______ _______ _____ _____    ______ ____
ROOT
ATOM      1  C   UNL     1       2.972  -0.625   1.069  0.00  0.00    +0.016 C 
ATOM      2  C   UNL     1       2.624   0.105   2.373  0.00  0.00    +0.017 C 
ATOM      3  C   UNL     1       3.175  -0.625   3.592  0.00  0.00    +0.045 C 
ATOM      4  C   UNL     1       2.683  -2.063   3.644  0.00  0.00    +0.174 C 
ATOM      5  C   UNL     1       3.046  -2.785   2.353  0.00  0.00    +0.045 C 
ATOM      6  C   UNL     1       2.482  -2.069   1.134  0.00  0.00    +0.017 C 
ENDROOT
BRANCH   1   8
ATOM      7  O   UNL     1       5.192   0.247   1.480  0.00  0.00    -0.549 OA
ATOM      8  C   UNL     1       4.476  -0.594   0.851  0.00  0.00    +0.048 C 
ATOM      9  O   UNL     1       5.081  -1.504  -0.056  0.00  0.00    -0.549 OA
ENDBRANCH   1   8
BRANCH   1  10
ATOM     10  C   UNL     1       2.212   0.057  -0.057  0.00  0.00    +0.068 C 
BRANCH  10  11
ATOM     11  C   UNL     1       2.714   1.492  -0.034  0.00  0.00    +0.044 A 
ATOM     12  C   UNL     1       4.056   1.756  -0.229  0.00  0.00    +0.023 A 
ATOM     13  C   UNL     1       4.537   3.052  -0.028  0.00  0.00    +0.005 A 
ATOM     14  C   UNL     1       3.623   4.028   0.347  0.00  0.00    +0.044 A 
ATOM     15  C   UNL     1       2.299   3.684   0.496  0.00  0.00    +0.125 A 
ATOM     16  N   UNL     1       1.836   2.441   0.325  0.00  0.00    -0.237 NA
BRANCH  15  17
ATOM     17  N   UNL     1       1.342   4.738   0.861  0.00  0.00    -0.279 N 
ATOM     18  C   UNL     1      -0.081   4.413   1.030  0.00  0.00    +0.163 A 
ATOM     19  N   UNL     1      -0.482   3.548   1.916  0.00  0.00    -0.233 NA
ATOM     20  C   UNL     1      -1.849   3.330   1.863  0.00  0.00    +0.120 A 
ATOM     21  C   UNL     1      -2.481   4.046   0.880  0.00  0.00    +0.068 A 
ATOM     22  S   UNL     1      -1.335   5.034   0.013  0.00  0.00    -0.061 S 
ATOM     23  H   UNL     1       1.666   5.696   0.998  0.00  0.00    +0.155 HD
ENDBRANCH  15  17
ENDBRANCH  10  11
ENDBRANCH   1  10
BRANCH   4  24
ATOM     24  O   UNL     1       1.272  -2.067   3.799  0.00  0.00    -0.486 OA
BRANCH  24  25
ATOM     25  C   UNL     1       0.448  -1.455   2.817  0.00  0.00    +0.157 A 
ATOM     26  C   UNL     1      -0.469  -0.472   3.127  0.00  0.00    +0.049 A 
ATOM     27  C   UNL     1      -1.325   0.042   2.161  0.00  0.00    +0.005 A 
ATOM     28  C   UNL     1      -1.247  -0.449   0.859  0.00  0.00    +0.023 A 
ATOM     29  C   UNL     1      -0.327  -1.433   0.550  0.00  0.00    +0.080 A 
ATOM     30 CL   UNL     1      -0.193  -2.021  -1.072  0.00  0.00    -0.080 Cl
ATOM     31  C   UNL     1       0.504  -1.925   1.531  0.00  0.00    +0.183 A 
ATOM     32  F   UNL     1       1.413  -2.870   1.214  0.00  0.00    -0.200 F 
ENDBRANCH  24  25
ENDBRANCH   4  24
TORSDOF 6
