
 OpenBabel10152419583D

 37 40  0  0  0  0  0  0  0  0999 V2000
    1.6870   -6.2610  -28.2340 C   0  0  0  0  0  0  0  0  0  0  0  0
    1.3450   -4.9470  -27.9180 C   0  0  0  0  0  3  0  0  0  0  0  0
    0.3670   -4.7030  -26.9590 C   0  0  0  0  0  3  0  0  0  0  0  0
   -0.2360   -5.7690  -26.2890 C   0  0  0  0  0  3  0  0  0  0  0  0
    0.1790   -7.0930  -26.5010 C   0  0  0  0  0  0  0  0  0  0  0  0
    1.1530   -7.3180  -27.4830 C   0  0  0  0  0  3  0  0  0  0  0  0
    3.6300   -7.3160  -29.4340 C   0  0  0  0  0  0  0  0  0  0  0  0
    4.4320   -7.2070  -30.3570 O   0  0  0  0  0  0  0  0  0  0  0  0
    2.5470   -6.4660  -29.3290 N   0  0  0  0  0  0  0  0  0  0  0  0
    2.3370   -5.9780  -30.1920 H   0  0  0  0  0  0  0  0  0  0  0  0
    4.3010  -10.5720  -26.7450 C   0  0  0  0  0  0  0  0  0  0  0  0
    3.8840  -10.8080  -28.0620 C   0  0  0  0  0  3  0  0  0  0  0  0
    3.6140   -9.7470  -28.9290 C   0  0  0  0  0  3  0  0  0  0  0  0
    3.7730   -8.4390  -28.4770 C   0  0  0  0  0  0  0  0  0  0  0  0
    4.1110   -8.1950  -27.1390 C   0  0  0  0  0  3  0  0  0  0  0  0
    4.3840   -9.2610  -26.2780 C   0  0  0  0  0  3  0  0  0  0  0  0
    4.6000  -11.7000  -26.0350 O   0  0  0  0  0  0  0  0  0  0  0  0
    3.7450  -12.9140  -24.0990 C   0  0  0  0  0  1  0  0  0  0  0  0
    3.5320  -12.5170  -25.5520 C   0  0  0  0  0  2  0  0  0  0  0  0
   -0.4510   -8.2710  -25.7710 C   0  0  0  0  0  2  0  0  0  0  0  0
   -0.2180   -8.2190  -24.3390 N   0  0  0  0  0  0  0  0  0  0  0  0
    0.4720   -7.5810  -23.9810 H   0  0  0  0  0  0  0  0  0  0  0  0
   -1.1120   -8.8510  -23.4880 C   0  0  0  0  0  0  0  0  0  0  0  0
   -2.0020   -8.0630  -22.8610 N   0  0  0  0  0  0  0  0  0  0  0  0
   -2.6460   -8.5880  -21.8230 C   0  0  0  0  0  3  0  0  0  0  0  0
   -2.4160   -9.7910  -21.2970 N   0  0  0  0  0  0  0  0  0  0  0  0
   -1.5500  -10.5990  -21.9390 C   0  0  0  0  0  0  0  0  0  0  0  0
   -1.2170  -11.8610  -21.4320 C   0  0  0  0  0  0  0  0  0  0  0  0
   -0.3860  -12.7600  -22.1180 C   0  0  0  0  0  3  0  0  0  0  0  0
    0.1930  -12.3780  -23.3160 C   0  0  0  0  0  3  0  0  0  0  0  0
   -0.0390  -11.0940  -23.7970 C   0  0  0  0  0  3  0  0  0  0  0  0
   -0.9040  -10.1940  -23.1170 C   0  0  0  0  0  0  0  0  0  0  0  0
   -1.6380  -12.2730  -20.0760 C   0  0  0  0  0  0  0  0  0  0  0  0
   -2.9700  -12.5440  -19.9210 N   0  0  0  0  0  0  0  0  0  0  0  0
   -0.8630  -12.2560  -19.1300 O   0  0  0  0  0  0  0  0  0  0  0  0
   -3.3080  -12.7860  -19.0000 H   0  0  0  0  0  0  0  0  0  0  0  0
   -3.6140  -12.5650  -20.7000 H   0  0  0  0  0  0  0  0  0  0  0  0
  1  2  2  0  0  0  0
  1  6  1  0  0  0  0
  2  3  1  0  0  0  0
  3  4  2  0  0  0  0
  5  4  1  0  0  0  0
  5 20  1  0  0  0  0
  6  5  2  0  0  0  0
  7  9  1  0  0  0  0
  7 14  1  0  0  0  0
  8  7  2  0  0  0  0
  9  1  1  0  0  0  0
 10  9  1  0  0  0  0
 11 16  1  0  0  0  0
 11 17  1  0  0  0  0
 12 11  2  0  0  0  0
 13 14  2  0  0  0  0
 13 12  1  0  0  0  0
 14 15  1  0  0  0  0
 15 16  2  0  0  0  0
 17 19  1  0  0  0  0
 19 18  1  0  0  0  0
 20 21  1  0  0  0  0
 21 22  1  0  0  0  0
 21 23  1  0  0  0  0
 23 32  2  0  0  0  0
 23 24  1  0  0  0  0
 24 25  2  0  0  0  0
 25 26  1  0  0  0  0
 27 28  1  0  0  0  0
 27 26  2  0  0  0  0
 28 33  1  0  0  0  0
 29 28  2  0  0  0  0
 30 29  1  0  0  0  0
 31 30  2  0  0  0  0
 31 32  1  0  0  0  0
 32 27  1  0  0  0  0
 33 34  1  0  0  0  0
 33 35  2  0  0  0  0
 34 36  1  0  0  0  0
 37 34  1  0  0  0  0
M  END
>  <minimizedAffinity>
-9.49857903

$$$$
