
 OpenBabel10152419583D

 37 40  0  0  0  0  0  0  0  0999 V2000
   -0.9580  -10.5210  -23.5030 C   0  0  0  0  0  0  0  0  0  0  0  0
   -1.6200  -10.6910  -24.7180 C   0  0  0  0  0  3  0  0  0  0  0  0
   -1.0040  -11.4020  -25.7430 C   0  0  0  0  0  3  0  0  0  0  0  0
    0.2520  -11.9760  -25.5390 C   0  0  0  0  0  3  0  0  0  0  0  0
    0.8840  -11.9220  -24.2870 C   0  0  0  0  0  0  0  0  0  0  0  0
    0.2540  -11.1880  -23.2730 C   0  0  0  0  0  3  0  0  0  0  0  0
   -1.5140   -8.2700  -22.5280 C   0  0  0  0  0  0  0  0  0  0  0  0
   -1.8490   -7.6560  -21.5190 O   0  0  0  0  0  0  0  0  0  0  0  0
   -1.5370   -9.6500  -22.5620 N   0  0  0  0  0  0  0  0  0  0  0  0
   -2.1000  -10.0580  -21.8240 H   0  0  0  0  0  0  0  0  0  0  0  0
   -0.7210   -5.9000  -25.9980 C   0  0  0  0  0  0  0  0  0  0  0  0
   -1.7410   -6.8620  -26.0080 C   0  0  0  0  0  3  0  0  0  0  0  0
   -1.9700   -7.6740  -24.8950 C   0  0  0  0  0  3  0  0  0  0  0  0
   -1.1800   -7.5140  -23.7590 C   0  0  0  0  0  0  0  0  0  0  0  0
   -0.1080   -6.6120  -23.7710 C   0  0  0  0  0  3  0  0  0  0  0  0
    0.1140   -5.7990  -24.8860 C   0  0  0  0  0  3  0  0  0  0  0  0
   -0.6580   -5.1290  -27.1240 O   0  0  0  0  0  0  0  0  0  0  0  0
    1.1600   -3.9690  -28.2650 C   0  0  0  0  0  1  0  0  0  0  0  0
    0.4490   -5.2900  -28.0120 C   0  0  0  0  0  2  0  0  0  0  0  0
    2.2460  -12.5540  -24.0330 C   0  0  0  0  0  2  0  0  0  0  0  0
    3.3280  -11.7750  -24.6100 N   0  0  0  0  0  0  0  0  0  0  0  0
    4.1430  -11.5870  -24.0510 H   0  0  0  0  0  0  0  0  0  0  0  0
    3.3280  -11.5290  -25.9740 C   0  0  0  0  0  0  0  0  0  0  0  0
    3.7390  -12.5370  -26.7630 N   0  0  0  0  0  0  0  0  0  0  0  0
    4.0450  -12.2300  -28.0210 C   0  0  0  0  0  3  0  0  0  0  0  0
    4.0680  -11.0000  -28.5350 N   0  0  0  0  0  0  0  0  0  0  0  0
    3.6260   -9.9900  -27.7600 C   0  0  0  0  0  0  0  0  0  0  0  0
    3.6580   -8.6620  -28.2040 C   0  0  0  0  0  0  0  0  0  0  0  0
    3.1280   -7.6000  -27.4560 C   0  0  0  0  0  3  0  0  0  0  0  0
    2.6070   -7.8410  -26.1970 C   0  0  0  0  0  3  0  0  0  0  0  0
    2.6510   -9.1350  -25.6870 C   0  0  0  0  0  3  0  0  0  0  0  0
    3.1620  -10.2160  -26.4550 C   0  0  0  0  0  0  0  0  0  0  0  0
    4.3630   -8.2920  -29.4490 C   0  0  0  0  0  0  0  0  0  0  0  0
    4.4710   -6.9520  -29.6980 N   0  0  0  0  0  0  0  0  0  0  0  0
    4.7210   -9.1360  -30.2590 O   0  0  0  0  0  0  0  0  0  0  0  0
    4.9070   -6.6560  -30.5610 H   0  0  0  0  0  0  0  0  0  0  0  0
    4.1810   -6.2500  -29.0300 H   0  0  0  0  0  0  0  0  0  0  0  0
  1  6  1  0  0  0  0
  1  9  1  0  0  0  0
  2  1  2  0  0  0  0
  3  4  2  0  0  0  0
  3  2  1  0  0  0  0
  4  5  1  0  0  0  0
  5 20  1  0  0  0  0
  5  6  2  0  0  0  0
  7  8  2  0  0  0  0
  9  7  1  0  0  0  0
  9 10  1  0  0  0  0
 11 16  1  0  0  0  0
 12 11  2  0  0  0  0
 12 13  1  0  0  0  0
 13 14  2  0  0  0  0
 14  7  1  0  0  0  0
 15 14  1  0  0  0  0
 16 15  2  0  0  0  0
 17 11  1  0  0  0  0
 18 19  1  0  0  0  0
 19 17  1  0  0  0  0
 21 22  1  0  0  0  0
 21 20  1  0  0  0  0
 23 21  1  0  0  0  0
 24 23  2  0  0  0  0
 25 24  1  0  0  0  0
 26 25  2  0  0  0  0
 26 27  1  0  0  0  0
 27 32  1  0  0  0  0
 28 27  2  0  0  0  0
 28 29  1  0  0  0  0
 29 30  2  0  0  0  0
 30 31  1  0  0  0  0
 32 23  1  0  0  0  0
 32 31  2  0  0  0  0
 33 28  1  0  0  0  0
 34 33  1  0  0  0  0
 34 37  1  0  0  0  0
 35 33  2  0  0  0  0
 36 34  1  0  0  0  0
M  END
>  <minimizedAffinity>
-9.08780861

$$$$
