
 OpenBabel10152419583D

 37 40  0  0  0  0  0  0  0  0999 V2000
    0.0230  -12.2940  -22.8220 C   0  0  0  0  0  0  0  0  0  0  0  0
    1.1780  -12.9580  -22.4130 C   0  0  0  0  0  3  0  0  0  0  0  0
    2.3370  -12.8570  -23.1750 C   0  0  0  0  0  3  0  0  0  0  0  0
    2.3510  -12.0600  -24.3220 C   0  0  0  0  0  3  0  0  0  0  0  0
    1.2390  -11.2860  -24.6870 C   0  0  0  0  0  0  0  0  0  0  0  0
    0.0770  -11.4150  -23.9140 C   0  0  0  0  0  3  0  0  0  0  0  0
   -1.9990  -11.6880  -21.4550 C   0  0  0  0  0  0  0  0  0  0  0  0
   -2.8640  -12.0990  -20.6860 O   0  0  0  0  0  0  0  0  0  0  0  0
   -1.1680  -12.5650  -22.1230 N   0  0  0  0  0  0  0  0  0  0  0  0
   -1.5200  -13.5150  -22.1400 H   0  0  0  0  0  0  0  0  0  0  0  0
   -2.0140   -7.4800  -22.2120 C   0  0  0  0  0  0  0  0  0  0  0  0
   -2.3620   -8.3890  -23.2210 C   0  0  0  0  0  3  0  0  0  0  0  0
   -2.3090   -9.7660  -22.9950 C   0  0  0  0  0  3  0  0  0  0  0  0
   -1.9160  -10.2370  -21.7450 C   0  0  0  0  0  0  0  0  0  0  0  0
   -1.4900   -9.3380  -20.7570 C   0  0  0  0  0  3  0  0  0  0  0  0
   -1.5500   -7.9610  -20.9890 C   0  0  0  0  0  3  0  0  0  0  0  0
   -2.1830   -6.1670  -22.5490 O   0  0  0  0  0  0  0  0  0  0  0  0
    0.0590   -5.6330  -23.3480 C   0  0  0  0  0  1  0  0  0  0  0  0
   -1.0810   -5.2700  -22.4090 C   0  0  0  0  0  2  0  0  0  0  0  0
    1.2350  -10.3970  -25.9230 C   0  0  0  0  0  2  0  0  0  0  0  0
    2.0010   -9.1790  -25.7260 N   0  0  0  0  0  0  0  0  0  0  0  0
    2.6540   -9.1320  -24.9620 H   0  0  0  0  0  0  0  0  0  0  0  0
    2.0050   -8.2180  -26.7260 C   0  0  0  0  0  0  0  0  0  0  0  0
    3.1560   -8.0630  -27.4020 N   0  0  0  0  0  0  0  0  0  0  0  0
    3.2830   -6.9580  -28.1310 C   0  0  0  0  0  3  0  0  0  0  0  0
    2.4070   -5.9530  -28.1730 N   0  0  0  0  0  0  0  0  0  0  0  0
    1.2380   -6.1150  -27.5240 C   0  0  0  0  0  0  0  0  0  0  0  0
    0.2810   -5.0930  -27.4780 C   0  0  0  0  0  0  0  0  0  0  0  0
   -0.9790   -5.2600  -26.8840 C   0  0  0  0  0  3  0  0  0  0  0  0
   -1.2870   -6.4540  -26.2550 C   0  0  0  0  0  3  0  0  0  0  0  0
   -0.3210   -7.4530  -26.1970 C   0  0  0  0  0  3  0  0  0  0  0  0
    0.9460   -7.2950  -26.8220 C   0  0  0  0  0  0  0  0  0  0  0  0
    0.5970   -3.7320  -27.9580 C   0  0  0  0  0  0  0  0  0  0  0  0
    0.0100   -2.7050  -27.2720 N   0  0  0  0  0  0  0  0  0  0  0  0
    1.2480   -3.5460  -28.9770 O   0  0  0  0  0  0  0  0  0  0  0  0
    0.1640   -1.7600  -27.5950 H   0  0  0  0  0  0  0  0  0  0  0  0
   -0.5250   -2.8520  -26.4270 H   0  0  0  0  0  0  0  0  0  0  0  0
  1  2  1  0  0  0  0
  1  9  1  0  0  0  0
  3  2  2  0  0  0  0
  4  3  1  0  0  0  0
  5  4  2  0  0  0  0
  5  6  1  0  0  0  0
  6  1  2  0  0  0  0
  7  8  2  0  0  0  0
  9  7  1  0  0  0  0
 10  9  1  0  0  0  0
 11 16  1  0  0  0  0
 12 13  1  0  0  0  0
 12 11  2  0  0  0  0
 13 14  2  0  0  0  0
 14  7  1  0  0  0  0
 14 15  1  0  0  0  0
 16 15  2  0  0  0  0
 17 19  1  0  0  0  0
 17 11  1  0  0  0  0
 18 19  1  0  0  0  0
 20 21  1  0  0  0  0
 20  5  1  0  0  0  0
 21 22  1  0  0  0  0
 23 21  1  0  0  0  0
 24 23  2  0  0  0  0
 25 24  1  0  0  0  0
 26 25  2  0  0  0  0
 26 27  1  0  0  0  0
 27 28  2  0  0  0  0
 27 32  1  0  0  0  0
 28 29  1  0  0  0  0
 29 30  2  0  0  0  0
 30 31  1  0  0  0  0
 32 23  1  0  0  0  0
 32 31  2  0  0  0  0
 33 28  1  0  0  0  0
 33 34  1  0  0  0  0
 34 37  1  0  0  0  0
 35 33  2  0  0  0  0
 36 34  1  0  0  0  0
M  END
>  <minimizedAffinity>
-8.11406898

$$$$
