
 OpenBabel10152419333D

 34 37  0  0  1  0  0  0  0  0999 V2000
    2.4890   -8.3830  -24.7820 C   0  0  0  0  0  1  0  0  0  0  0  0
    2.6570   -9.4730  -25.8510 C   0  0  2  0  0  3  0  0  0  0  0  0
    2.9750   -8.9050  -27.2300 C   0  0  0  0  0  0  0  0  0  0  0  0
    3.8380   -9.5150  -28.1440 C   0  0  0  0  0  3  0  0  0  0  0  0
    4.2070   -8.8460  -29.3150 C   0  0  0  0  0  3  0  0  0  0  0  0
    3.7700   -7.5370  -29.5670 C   0  0  0  0  0  3  0  0  0  0  0  0
    2.8990   -6.9150  -28.6830 C   0  0  0  0  0  0  0  0  0  0  0  0
    2.4650   -7.6370  -27.5640 C   0  0  0  0  0  3  0  0  0  0  0  0
    2.4620   -5.5830  -28.7300 N   0  0  0  0  0  0  0  0  0  0  0  0
    1.3480   -4.9060  -28.3220 C   0  0  0  0  0  0  0  0  0  0  0  0
    1.2040   -3.7470  -28.7010 O   0  0  0  0  0  0  0  0  0  0  0  0
    3.0540   -4.9450  -29.2530 H   0  0  0  0  0  0  0  0  0  0  0  0
    0.3130   -5.5160  -27.4800 C   0  0  1  0  0  3  0  0  0  0  0  0
    0.2410   -5.3510  -25.9740 C   0  0  0  0  0  2  0  0  0  0  0  0
   -0.6490   -4.5650  -26.8530 C   0  0  0  0  0  0  0  0  0  0  0  0
   -0.4880   -3.2000  -26.8900 F   0  0  0  0  0  0  0  0  0  0  0  0
   -1.9990   -4.8220  -26.8550 F   0  0  0  0  0  0  0  0  0  0  0  0
    1.4440  -10.3030  -25.8530 N   0  0  0  0  0  0  0  0  0  0  0  0
    1.6110  -11.2570  -26.1650 H   0  0  0  0  0  0  0  0  0  0  0  0
    0.5630  -10.3890  -24.7890 C   0  0  0  0  0  0  0  0  0  0  0  0
    0.8770  -11.3990  -23.9650 N   0  0  0  0  0  0  0  0  0  0  0  0
    0.2100  -11.4590  -22.8160 C   0  0  0  0  0  3  0  0  0  0  0  0
   -0.7260  -10.5970  -22.4050 N   0  0  0  0  0  0  0  0  0  0  0  0
   -1.1000   -9.6150  -23.2560 C   0  0  0  0  0  0  0  0  0  0  0  0
   -2.0840   -8.6650  -22.9120 C   0  0  0  0  0  0  0  0  0  0  0  0
   -2.5070   -7.6830  -23.8290 C   0  0  0  0  0  3  0  0  0  0  0  0
   -1.9850   -7.6470  -25.1120 C   0  0  0  0  0  3  0  0  0  0  0  0
   -1.0010   -8.5630  -25.4630 C   0  0  0  0  0  3  0  0  0  0  0  0
   -0.5070   -9.5110  -24.5300 C   0  0  0  0  0  0  0  0  0  0  0  0
   -2.7430   -8.6140  -21.5670 C   0  0  0  0  0  0  0  0  0  0  0  0
   -1.9850   -8.8730  -20.4630 N   0  0  0  0  0  0  0  0  0  0  0  0
   -3.9290   -8.3400  -21.4420 O   0  0  0  0  0  0  0  0  0  0  0  0
   -2.4200   -8.8350  -19.5530 H   0  0  0  0  0  0  0  0  0  0  0  0
   -1.0080   -9.1380  -20.5510 H   0  0  0  0  0  0  0  0  0  0  0  0
  2  1  1  1  0  0  0
  3  2  1  0  0  0  0
  4  3  2  0  0  0  0
  5  4  1  0  0  0  0
  6  5  2  0  0  0  0
  6  7  1  0  0  0  0
  7  8  2  0  0  0  0
  8  3  1  0  0  0  0
  9  7  1  0  0  0  0
  9 10  1  0  0  0  0
 11 10  2  0  0  0  0
 12  9  1  0  0  0  0
 13 10  1  6  0  0  0
 13 15  1  0  0  0  0
 13 14  1  0  0  0  0
 15 14  1  0  0  0  0
 16 15  1  0  0  0  0
 17 15  1  0  0  0  0
 18  2  1  0  0  0  0
 18 20  1  0  0  0  0
 19 18  1  0  0  0  0
 20 29  2  0  0  0  0
 20 21  1  0  0  0  0
 21 22  2  0  0  0  0
 22 23  1  0  0  0  0
 24 25  1  0  0  0  0
 24 23  2  0  0  0  0
 25 30  1  0  0  0  0
 26 25  2  0  0  0  0
 27 26  1  0  0  0  0
 28 27  2  0  0  0  0
 28 29  1  0  0  0  0
 29 24  1  0  0  0  0
 30 32  2  0  0  0  0
 30 31  1  0  0  0  0
 31 33  1  0  0  0  0
 34 31  1  0  0  0  0
M  END
>  <minimizedAffinity>
-9.39481735

$$$$
