
 OpenBabel10152419333D

 34 37  0  0  1  0  0  0  0  0999 V2000
    2.9950  -11.8700  -27.3030 C   0  0  0  0  0  1  0  0  0  0  0  0
    2.7850  -11.3900  -25.8600 C   0  0  2  0  0  3  0  0  0  0  0  0
    1.3120  -11.2460  -25.4920 C   0  0  0  0  0  0  0  0  0  0  0  0
    0.2890  -11.0790  -26.4290 C   0  0  0  0  0  3  0  0  0  0  0  0
   -1.0100  -10.7840  -26.0030 C   0  0  0  0  0  3  0  0  0  0  0  0
   -1.2990  -10.5920  -24.6450 C   0  0  0  0  0  3  0  0  0  0  0  0
   -0.3030  -10.7660  -23.6940 C   0  0  0  0  0  0  0  0  0  0  0  0
    0.9690  -11.1560  -24.1310 C   0  0  0  0  0  3  0  0  0  0  0  0
   -0.3980  -10.5040  -22.3190 N   0  0  0  0  0  0  0  0  0  0  0  0
   -1.2280   -9.7680  -21.5200 C   0  0  0  0  0  0  0  0  0  0  0  0
   -0.9030   -9.6010  -20.3480 O   0  0  0  0  0  0  0  0  0  0  0  0
    0.3570  -10.8700  -21.7480 H   0  0  0  0  0  0  0  0  0  0  0  0
   -2.4640   -9.1510  -22.0150 C   0  0  1  0  0  3  0  0  0  0  0  0
   -3.1860   -8.0200  -21.3080 C   0  0  0  0  0  2  0  0  0  0  0  0
   -2.3360   -7.7430  -22.4840 C   0  0  0  0  0  0  0  0  0  0  0  0
   -1.2000   -6.9900  -22.3030 F   0  0  0  0  0  0  0  0  0  0  0  0
   -2.9180   -7.3340  -23.6610 F   0  0  0  0  0  0  0  0  0  0  0  0
    3.5320  -10.1360  -25.6810 N   0  0  0  0  0  0  0  0  0  0  0  0
    4.5410  -10.2710  -25.6550 H   0  0  0  0  0  0  0  0  0  0  0  0
    3.3090   -8.9900  -26.4220 C   0  0  0  0  0  0  0  0  0  0  0  0
    4.1030   -8.9340  -27.5020 N   0  0  0  0  0  0  0  0  0  0  0  0
    3.8450   -7.9700  -28.3800 C   0  0  0  0  0  3  0  0  0  0  0  0
    2.8600   -7.0690  -28.2920 N   0  0  0  0  0  0  0  0  0  0  0  0
    2.0970   -7.0730  -27.1760 C   0  0  0  0  0  0  0  0  0  0  0  0
    1.0400   -6.1570  -26.9930 C   0  0  0  0  0  0  0  0  0  0  0  0
    0.2910   -6.1300  -25.8010 C   0  0  0  0  0  3  0  0  0  0  0  0
    0.5970   -6.9910  -24.7590 C   0  0  0  0  0  3  0  0  0  0  0  0
    1.6220   -7.9140  -24.9290 C   0  0  0  0  0  3  0  0  0  0  0  0
    2.3390   -8.0070  -26.1500 C   0  0  0  0  0  0  0  0  0  0  0  0
    0.6270   -5.1590  -28.0330 C   0  0  0  0  0  0  0  0  0  0  0  0
    1.5800   -4.3350  -28.5560 N   0  0  0  0  0  0  0  0  0  0  0  0
   -0.5300   -5.0770  -28.4210 O   0  0  0  0  0  0  0  0  0  0  0  0
    1.3110   -3.6640  -29.2610 H   0  0  0  0  0  0  0  0  0  0  0  0
    2.5380   -4.3640  -28.2190 H   0  0  0  0  0  0  0  0  0  0  0  0
  2  1  1  6  0  0  0
  2 18  1  0  0  0  0
  2  3  1  0  0  0  0
  3  8  1  0  0  0  0
  4  5  1  0  0  0  0
  4  3  2  0  0  0  0
  5  6  2  0  0  0  0
  6  7  1  0  0  0  0
  7  9  1  0  0  0  0
  8  7  2  0  0  0  0
  9 12  1  0  0  0  0
  9 10  1  0  0  0  0
 10 11  2  0  0  0  0
 13 10  1  1  0  0  0
 13 14  1  0  0  0  0
 15 16  1  0  0  0  0
 15 13  1  0  0  0  0
 15 14  1  0  0  0  0
 17 15  1  0  0  0  0
 18 19  1  0  0  0  0
 20 29  1  0  0  0  0
 20 18  1  0  0  0  0
 21 20  2  0  0  0  0
 22 23  2  0  0  0  0
 22 21  1  0  0  0  0
 23 24  1  0  0  0  0
 24 25  2  0  0  0  0
 24 29  1  0  0  0  0
 25 26  1  0  0  0  0
 26 27  2  0  0  0  0
 28 27  1  0  0  0  0
 29 28  2  0  0  0  0
 30 25  1  0  0  0  0
 31 34  1  0  0  0  0
 31 30  1  0  0  0  0
 32 30  2  0  0  0  0
 33 31  1  0  0  0  0
M  END
>  <minimizedAffinity>
-9.55701447

$$$$
