
 OpenBabel10152419333D

 34 37  0  0  1  0  0  0  0  0999 V2000
   -0.6200   -8.9960  -25.8420 C   0  0  0  0  0  1  0  0  0  0  0  0
    0.7210   -8.5450  -25.2450 C   0  0  2  0  0  3  0  0  0  0  0  0
    1.7230   -8.1030  -26.3070 C   0  0  0  0  0  0  0  0  0  0  0  0
    3.0160   -8.6180  -26.4190 C   0  0  0  0  0  3  0  0  0  0  0  0
    3.9270   -8.0390  -27.3090 C   0  0  0  0  0  3  0  0  0  0  0  0
    3.5830   -6.9030  -28.0570 C   0  0  0  0  0  3  0  0  0  0  0  0
    2.3000   -6.3820  -27.9740 C   0  0  0  0  0  0  0  0  0  0  0  0
    1.3730   -7.0320  -27.1500 C   0  0  0  0  0  3  0  0  0  0  0  0
    1.8350   -5.1960  -28.5630 N   0  0  0  0  0  0  0  0  0  0  0  0
    0.9890   -4.1890  -28.1930 C   0  0  0  0  0  0  0  0  0  0  0  0
    0.6470   -3.3780  -29.0490 O   0  0  0  0  0  0  0  0  0  0  0  0
    2.1090   -5.0490  -29.5290 H   0  0  0  0  0  0  0  0  0  0  0  0
    0.4580   -4.0590  -26.8320 C   0  0  1  0  0  3  0  0  0  0  0  0
   -0.8260   -3.3280  -26.4910 C   0  0  0  0  0  2  0  0  0  0  0  0
   -0.8050   -4.8030  -26.5610 C   0  0  0  0  0  0  0  0  0  0  0  0
   -1.5410   -5.4190  -27.5470 F   0  0  0  0  0  0  0  0  0  0  0  0
   -0.9590   -5.5400  -25.4100 F   0  0  0  0  0  0  0  0  0  0  0  0
    1.2390   -9.6370  -24.4070 N   0  0  0  0  0  0  0  0  0  0  0  0
    1.9120   -9.3240  -23.7110 H   0  0  0  0  0  0  0  0  0  0  0  0
    0.4400  -10.5800  -23.7840 C   0  0  0  0  0  0  0  0  0  0  0  0
    0.6980  -11.8190  -24.2270 N   0  0  0  0  0  0  0  0  0  0  0  0
    0.1200  -12.8180  -23.5670 C   0  0  0  0  0  3  0  0  0  0  0  0
   -0.6730  -12.6990  -22.4970 N   0  0  0  0  0  0  0  0  0  0  0  0
   -0.9940  -11.4520  -22.0830 C   0  0  0  0  0  0  0  0  0  0  0  0
   -1.8300  -11.2290  -20.9690 C   0  0  0  0  0  0  0  0  0  0  0  0
   -2.2060   -9.9280  -20.5830 C   0  0  0  0  0  3  0  0  0  0  0  0
   -1.7850   -8.8290  -21.3150 C   0  0  0  0  0  3  0  0  0  0  0  0
   -0.9460   -9.0280  -22.4040 C   0  0  0  0  0  3  0  0  0  0  0  0
   -0.4950  -10.3240  -22.7640 C   0  0  0  0  0  0  0  0  0  0  0  0
   -2.3700  -12.3340  -20.1120 C   0  0  0  0  0  0  0  0  0  0  0  0
   -1.5210  -12.9580  -19.2460 N   0  0  0  0  0  0  0  0  0  0  0  0
   -3.5440  -12.6750  -20.1690 O   0  0  0  0  0  0  0  0  0  0  0  0
   -1.8790  -13.6990  -18.6610 H   0  0  0  0  0  0  0  0  0  0  0  0
   -0.5360  -12.7130  -19.2130 H   0  0  0  0  0  0  0  0  0  0  0  0
  2  1  1  6  0  0  0
  2 18  1  0  0  0  0
  3  2  1  0  0  0  0
  4  3  1  0  0  0  0
  5  4  2  0  0  0  0
  6  7  2  0  0  0  0
  6  5  1  0  0  0  0
  7  8  1  0  0  0  0
  8  3  2  0  0  0  0
  9 10  1  0  0  0  0
  9  7  1  0  0  0  0
 11 10  2  0  0  0  0
 12  9  1  0  0  0  0
 13 10  1  6  0  0  0
 13 15  1  0  0  0  0
 13 14  1  0  0  0  0
 15 14  1  0  0  0  0
 15 17  1  0  0  0  0
 16 15  1  0  0  0  0
 18 20  1  0  0  0  0
 18 19  1  0  0  0  0
 20 29  1  0  0  0  0
 21 20  2  0  0  0  0
 21 22  1  0  0  0  0
 22 23  2  0  0  0  0
 23 24  1  0  0  0  0
 24 25  1  0  0  0  0
 25 26  2  0  0  0  0
 25 30  1  0  0  0  0
 27 26  1  0  0  0  0
 28 27  2  0  0  0  0
 29 28  1  0  0  0  0
 29 24  2  0  0  0  0
 30 31  1  0  0  0  0
 31 34  1  0  0  0  0
 31 33  1  0  0  0  0
 32 30  2  0  0  0  0
M  END
>  <minimizedAffinity>
-8.93458939

$$$$
