
 OpenBabel10152419333D

 34 37  0  0  1  0  0  0  0  0999 V2000
    1.0010   -5.0870  -27.5360 C   0  0  0  0  0  1  0  0  0  0  0  0
    1.2250   -6.5390  -27.0880 C   0  0  2  0  0  3  0  0  0  0  0  0
    2.4340   -7.1850  -27.7580 C   0  0  0  0  0  0  0  0  0  0  0  0
    2.9140   -6.8180  -29.0170 C   0  0  0  0  0  3  0  0  0  0  0  0
    3.9190   -7.5730  -29.6310 C   0  0  0  0  0  3  0  0  0  0  0  0
    4.4180   -8.7360  -29.0290 C   0  0  0  0  0  3  0  0  0  0  0  0
    3.9680   -9.1140  -27.7720 C   0  0  0  0  0  0  0  0  0  0  0  0
    3.0310   -8.2930  -27.1310 C   0  0  0  0  0  3  0  0  0  0  0  0
    4.2790  -10.2980  -27.0870 N   0  0  0  0  0  0  0  0  0  0  0  0
    3.6420  -11.1000  -26.1830 C   0  0  0  0  0  0  0  0  0  0  0  0
    4.2950  -11.9800  -25.6290 O   0  0  0  0  0  0  0  0  0  0  0  0
    5.2280  -10.6380  -27.2060 H   0  0  0  0  0  0  0  0  0  0  0  0
    2.2270  -10.9300  -25.8320 C   0  0  1  0  0  3  0  0  0  0  0  0
    1.2730  -12.0830  -25.5850 C   0  0  0  0  0  2  0  0  0  0  0  0
    1.8560  -11.3410  -24.4480 C   0  0  0  0  0  0  0  0  0  0  0  0
    2.7130  -12.0080  -23.6050 F   0  0  0  0  0  0  0  0  0  0  0  0
    1.0460  -10.5480  -23.6690 F   0  0  0  0  0  0  0  0  0  0  0  0
   -0.0170   -7.2890  -27.3300 N   0  0  0  0  0  0  0  0  0  0  0  0
    0.0500   -7.9330  -28.1150 H   0  0  0  0  0  0  0  0  0  0  0  0
   -0.7280   -7.9480  -26.3430 C   0  0  0  0  0  0  0  0  0  0  0  0
   -1.1340   -9.1590  -26.7490 N   0  0  0  0  0  0  0  0  0  0  0  0
   -1.6650   -9.9500  -25.8210 C   0  0  0  0  0  3  0  0  0  0  0  0
   -1.8120   -9.6540  -24.5260 N   0  0  0  0  0  0  0  0  0  0  0  0
   -1.4680   -8.4120  -24.1180 C   0  0  0  0  0  0  0  0  0  0  0  0
   -1.5940   -8.0070  -22.7730 C   0  0  0  0  0  0  0  0  0  0  0  0
   -1.2900   -6.6920  -22.3710 C   0  0  0  0  0  3  0  0  0  0  0  0
   -0.8860   -5.7480  -23.3010 C   0  0  0  0  0  3  0  0  0  0  0  0
   -0.7380   -6.1330  -24.6280 C   0  0  0  0  0  3  0  0  0  0  0  0
   -0.9670   -7.4710  -25.0400 C   0  0  0  0  0  0  0  0  0  0  0  0
   -2.0440   -8.9260  -21.6770 C   0  0  0  0  0  0  0  0  0  0  0  0
   -1.2430   -9.9780  -21.3430 N   0  0  0  0  0  0  0  0  0  0  0  0
   -3.0970   -8.7460  -21.0810 O   0  0  0  0  0  0  0  0  0  0  0  0
   -1.5360  -10.5980  -20.6010 H   0  0  0  0  0  0  0  0  0  0  0  0
   -0.3840  -10.1630  -21.8520 H   0  0  0  0  0  0  0  0  0  0  0  0
  2  1  1  6  0  0  0
  3  8  1  0  0  0  0
  3  2  1  0  0  0  0
  4  3  2  0  0  0  0
  5  6  2  0  0  0  0
  5  4  1  0  0  0  0
  6  7  1  0  0  0  0
  7  8  2  0  0  0  0
  7  9  1  0  0  0  0
  9 10  1  0  0  0  0
 10 11  2  0  0  0  0
 12  9  1  0  0  0  0
 13 10  1  1  0  0  0
 13 14  1  0  0  0  0
 13 15  1  0  0  0  0
 14 15  1  0  0  0  0
 15 17  1  0  0  0  0
 15 16  1  0  0  0  0
 18  2  1  0  0  0  0
 18 20  1  0  0  0  0
 19 18  1  0  0  0  0
 20 29  1  0  0  0  0
 21 20  2  0  0  0  0
 21 22  1  0  0  0  0
 22 23  2  0  0  0  0
 23 24  1  0  0  0  0
 24 25  1  0  0  0  0
 25 26  2  0  0  0  0
 25 30  1  0  0  0  0
 27 26  1  0  0  0  0
 28 27  2  0  0  0  0
 29 28  1  0  0  0  0
 29 24  2  0  0  0  0
 30 31  1  0  0  0  0
 30 32  2  0  0  0  0
 31 33  1  0  0  0  0
 34 31  1  0  0  0  0
M  END
>  <minimizedAffinity>
-9.12216568

$$$$
