REMARK  Name = 
REMARK  7 active torsions:
REMARK  status: ('A' for Active; 'I' for Inactive)
REMARK    1  A    between atoms: C_1  and  C_2
REMARK    2  A    between atoms: C_2  and  N_3
REMARK    3  A    between atoms: C_2  and  C_17
REMARK    4  A    between atoms: N_3  and  C_4
REMARK    5  A    between atoms: C_9  and  C_10
REMARK    6  A    between atoms: C_21  and  N_22
REMARK    7  A    between atoms: C_23  and  C_25
REMARK                            x       y       z     vdW  Elec       q    Type
REMARK                         _______ _______ _______ _____ _____    ______ ____
ROOT
ATOM      1  C   UNL     1       1.279  -0.329  -0.590  0.00  0.00    +0.033 C 
ATOM      2  C   UNL     1       0.307  -1.486  -0.317  0.00  0.00    +0.099 C 
ENDROOT
BRANCH   2   3
ATOM      3  C   UNL     1      -1.130  -1.017  -0.116  0.00  0.00    -0.026 A 
ATOM      4  C   UNL     1      -1.486   0.096   0.650  0.00  0.00    +0.005 A 
ATOM      5  C   UNL     1      -2.832   0.358   0.923  0.00  0.00    +0.002 A 
ATOM      6  C   UNL     1      -3.840  -0.515   0.489  0.00  0.00    +0.023 A 
ATOM      7  C   UNL     1      -3.514  -1.619  -0.286  0.00  0.00    +0.034 A 
ATOM      8  C   UNL     1      -2.170  -1.812  -0.630  0.00  0.00    +0.028 A 
BRANCH   7   9
ATOM      9  N   UNL     1      -4.381  -2.641  -0.701  0.00  0.00    -0.285 N 
ATOM     10  C   UNL     1      -5.711  -2.914  -0.550  0.00  0.00    +0.226 C 
ATOM     11  O   UNL     1      -6.116  -4.022  -0.891  0.00  0.00    -0.275 OA
ATOM     12  H   UNL     1      -3.941  -3.428  -1.167  0.00  0.00    +0.155 HD
BRANCH  10  13
ATOM     13  C   UNL     1      -6.658  -1.953   0.026  0.00  0.00    +0.150 C 
ATOM     14  C   UNL     1      -6.989  -0.612  -0.600  0.00  0.00    +0.095 C 
ATOM     15  C   UNL     1      -7.918  -1.752  -0.744  0.00  0.00    +0.261 C 
ATOM     16  F   UNL     1      -8.122  -2.271  -2.001  0.00  0.00    -0.205 F 
ATOM     17  F   UNL     1      -9.137  -1.718  -0.109  0.00  0.00    -0.205 F 
ENDBRANCH  10  13
ENDBRANCH   7   9
ENDBRANCH   2   3
BRANCH   2  18
ATOM     18  N   UNL     1       0.814  -2.247   0.835  0.00  0.00    -0.322 N 
ATOM     19  H   UNL     1       1.312  -1.670   1.509  0.00  0.00    +0.148 HD
BRANCH  18  20
ATOM     20  C   UNL     1       0.052  -3.138   1.570  0.00  0.00    +0.130 A 
ATOM     21  N   UNL     1       0.042  -2.824   2.874  0.00  0.00    -0.220 NA
ATOM     22  C   UNL     1      -0.805  -3.503   3.642  0.00  0.00    +0.223 A 
ATOM     23  N   UNL     1      -1.654  -4.450   3.230  0.00  0.00    -0.235 NA
ATOM     24  C   UNL     1      -1.605  -4.822   1.931  0.00  0.00    +0.088 A 
ATOM     25  C   UNL     1      -2.457  -5.817   1.408  0.00  0.00    +0.063 A 
ATOM     26  C   UNL     1      -2.356  -6.239   0.068  0.00  0.00    +0.015 A 
ATOM     27  C   UNL     1      -1.388  -5.704  -0.766  0.00  0.00    +0.002 A 
ATOM     28  C   UNL     1      -0.552  -4.709  -0.274  0.00  0.00    +0.013 A 
ATOM     29  C   UNL     1      -0.687  -4.217   1.050  0.00  0.00    +0.041 A 
BRANCH  25  30
ATOM     30  C   UNL     1      -3.527  -6.490   2.214  0.00  0.00    +0.244 C 
ATOM     31  N   UNL     1      -3.759  -6.047   3.483  0.00  0.00    -0.325 N 
ATOM     32  O   UNL     1      -4.191  -7.411   1.758  0.00  0.00    -0.270 OA
ATOM     33  H   UNL     1      -4.482  -6.491   4.030  0.00  0.00    +0.145 HD
ATOM     34  H   UNL     1      -3.192  -5.309   3.890  0.00  0.00    +0.145 HD
ENDBRANCH  25  30
ENDBRANCH  18  20
ENDBRANCH   2  18
TORSDOF 6
