
 OpenBabel10152419233D

 37 40  0  0  0  0  0  0  0  0999 V2000
    8.1810   -8.9480   12.3470 C   0  0  0  0  0  0  0  0  0  0  0  0
    9.3610   -8.8550   13.0840 C   0  0  0  0  0  3  0  0  0  0  0  0
   10.5890   -8.9960   12.4460 C   0  0  0  0  0  3  0  0  0  0  0  0
   10.6340   -9.1980   11.0680 C   0  0  0  0  0  3  0  0  0  0  0  0
    9.4680   -9.1790   10.2860 C   0  0  0  0  0  0  0  0  0  0  0  0
    8.2410   -9.0360   10.9490 C   0  0  0  0  0  3  0  0  0  0  0  0
    6.2220  -10.0600   13.4910 C   0  0  0  0  0  0  0  0  0  0  0  0
    5.0750   -9.8850   13.8970 O   0  0  0  0  0  0  0  0  0  0  0  0
    6.9760   -8.9850   13.0690 N   0  0  0  0  0  0  0  0  0  0  0  0
    6.5950   -8.1000   13.3820 H   0  0  0  0  0  0  0  0  0  0  0  0
   10.7810  -12.4670   12.1280 C   0  0  0  0  0  1  0  0  0  0  0  0
    9.8630  -13.3220   12.8340 N   0  0  0  0  0  0  0  0  0  0  0  0
    8.6020  -12.9710   13.2270 C   0  0  0  0  0  0  0  0  0  0  0  0
    8.1430  -11.6660   13.2590 C   0  0  0  0  0  3  0  0  0  0  0  0
    6.7980  -11.4250   13.5520 C   0  0  0  0  0  0  0  0  0  0  0  0
    5.9730  -12.4770   13.9260 C   0  0  0  0  0  3  0  0  0  0  0  0
    6.5240  -13.7390   13.9230 C   0  0  0  0  0  3  0  0  0  0  0  0
    7.8010  -14.0000   13.5630 N   0  0  0  0  0  0  0  0  0  0  0  0
   10.0290  -14.3210   12.8590 H   0  0  0  0  0  0  0  0  0  0  0  0
    9.5070   -9.3860    8.7780 C   0  0  0  0  0  2  0  0  0  0  0  0
    8.2220   -9.1100    8.1590 N   0  0  0  0  0  0  0  0  0  0  0  0
    8.1710   -8.4230    7.4260 H   0  0  0  0  0  0  0  0  0  0  0  0
    7.1540   -9.9560    8.4160 C   0  0  0  0  0  0  0  0  0  0  0  0
    5.9330   -9.3940    8.4330 N   0  0  0  0  0  0  0  0  0  0  0  0
    4.9490  -10.1080    8.9720 C   0  0  0  0  0  3  0  0  0  0  0  0
    5.0890  -11.2880    9.5800 N   0  0  0  0  0  0  0  0  0  0  0  0
    6.3030  -11.8710    9.5380 C   0  0  0  0  0  0  0  0  0  0  0  0
    6.5510  -13.0900   10.1810 C   0  0  0  0  0  0  0  0  0  0  0  0
    7.7750  -13.7670   10.0790 C   0  0  0  0  0  3  0  0  0  0  0  0
    8.8190  -13.1920    9.3750 C   0  0  0  0  0  3  0  0  0  0  0  0
    8.6380  -11.9350    8.8080 C   0  0  0  0  0  3  0  0  0  0  0  0
    7.3870  -11.2630    8.8850 C   0  0  0  0  0  0  0  0  0  0  0  0
    5.5570  -13.6820   11.1020 C   0  0  0  0  0  0  0  0  0  0  0  0
    5.7160  -15.0110   11.3820 N   0  0  0  0  0  0  0  0  0  0  0  0
    4.5860  -13.0470   11.4920 O   0  0  0  0  0  0  0  0  0  0  0  0
    5.0320  -15.4640   11.9710 H   0  0  0  0  0  0  0  0  0  0  0  0
    6.5180  -15.5390   11.0670 H   0  0  0  0  0  0  0  0  0  0  0  0
  1  9  1  0  0  0  0
  1  2  1  0  0  0  0
  3  2  2  0  0  0  0
  4  3  1  0  0  0  0
  5  6  1  0  0  0  0
  5  4  2  0  0  0  0
  6  1  2  0  0  0  0
  7 15  1  0  0  0  0
  7  8  2  0  0  0  0
  9 10  1  0  0  0  0
  9  7  1  0  0  0  0
 11 12  1  0  0  0  0
 12 19  1  0  0  0  0
 12 13  1  0  0  0  0
 13 14  2  0  0  0  0
 13 18  1  0  0  0  0
 14 15  1  0  0  0  0
 15 16  2  0  0  0  0
 17 16  1  0  0  0  0
 18 17  2  0  0  0  0
 20  5  1  0  0  0  0
 21 23  1  0  0  0  0
 21 20  1  0  0  0  0
 22 21  1  0  0  0  0
 23 24  2  0  0  0  0
 23 32  1  0  0  0  0
 24 25  1  0  0  0  0
 25 26  2  0  0  0  0
 27 26  1  0  0  0  0
 27 28  1  0  0  0  0
 28 33  1  0  0  0  0
 29 28  2  0  0  0  0
 30 29  1  0  0  0  0
 31 32  1  0  0  0  0
 31 30  2  0  0  0  0
 32 27  2  0  0  0  0
 33 34  1  0  0  0  0
 33 35  2  0  0  0  0
 34 36  1  0  0  0  0
 37 34  1  0  0  0  0
M  END
>  <minimizedAffinity>
3.91394496

$$$$
