REMARK  Name = 
REMARK  7 active torsions:
REMARK  status: ('A' for Active; 'I' for Inactive)
REMARK    1  A    between atoms: C_1  and  N_2
REMARK    2  A    between atoms: C_5  and  C_6
REMARK    3  A    between atoms: N_8  and  C_9
REMARK    4  A    between atoms: C_13  and  C_14
REMARK    5  A    between atoms: C_14  and  N_15
REMARK    6  A    between atoms: N_15  and  C_16
REMARK    7  A    between atoms: C_21  and  C_22
REMARK                            x       y       z     vdW  Elec       q    Type
REMARK                         _______ _______ _______ _____ _____    ______ ____
ROOT
ATOM      1  C   UNL     1      -2.905  -0.781   0.136  0.00  0.00    +0.034 A 
ATOM      2  C   UNL     1      -2.821  -0.644   1.521  0.00  0.00    +0.023 A 
ATOM      3  C   UNL     1      -2.232   0.490   2.070  0.00  0.00    +0.002 A 
ATOM      4  C   UNL     1      -1.758   1.499   1.233  0.00  0.00    +0.005 A 
ATOM      5  C   UNL     1      -1.936   1.440  -0.158  0.00  0.00    -0.029 A 
ATOM      6  C   UNL     1      -2.531   0.288  -0.691  0.00  0.00    +0.028 A 
ENDROOT
BRANCH   1   9
ATOM      7  C   UNL     1      -3.049  -2.656  -1.551  0.00  0.00    +0.248 C 
ATOM      8  O   UNL     1      -3.714  -3.626  -1.908  0.00  0.00    -0.270 OA
ATOM      9  N   UNL     1      -3.336  -2.023  -0.360  0.00  0.00    -0.281 N 
ATOM     10  H   UNL     1      -3.918  -2.589   0.247  0.00  0.00    +0.155 HD
BRANCH   7  15
ATOM     11  C   UNL     1       1.789  -0.556  -0.768  0.00  0.00    +0.127 C 
ATOM     12  N   UNL     1       1.533  -0.925  -2.135  0.00  0.00    -0.332 N 
ATOM     13  C   UNL     1       0.348  -1.413  -2.611  0.00  0.00    +0.119 A 
ATOM     14  C   UNL     1      -0.667  -1.890  -1.800  0.00  0.00    +0.056 A 
ATOM     15  C   UNL     1      -1.889  -2.246  -2.378  0.00  0.00    +0.042 A 
ATOM     16  C   UNL     1      -2.029  -2.237  -3.759  0.00  0.00    +0.033 A 
ATOM     17  C   UNL     1      -0.950  -1.802  -4.497  0.00  0.00    +0.113 A 
ATOM     18  N   UNL     1       0.211  -1.376  -3.950  0.00  0.00    -0.240 NA
ATOM     19  H   UNL     1       2.159  -0.606  -2.865  0.00  0.00    +0.147 HD
ENDBRANCH   7  15
ENDBRANCH   1   9
BRANCH   5  20
ATOM     20  C   UNL     1      -1.434   2.542  -1.081  0.00  0.00    +0.138 C 
BRANCH  20  21
ATOM     21  N   UNL     1      -2.081   3.814  -0.810  0.00  0.00    -0.324 N 
ATOM     22  H   UNL     1      -2.918   4.053  -1.315  0.00  0.00    +0.148 HD
BRANCH  21  23
ATOM     23  C   UNL     1      -1.679   4.554   0.291  0.00  0.00    +0.130 A 
ATOM     24  N   UNL     1      -0.360   4.576   0.551  0.00  0.00    -0.220 NA
ATOM     25  C   UNL     1       0.010   5.011   1.752  0.00  0.00    +0.223 A 
ATOM     26  N   UNL     1      -0.817   5.335   2.748  0.00  0.00    -0.235 NA
ATOM     27  C   UNL     1      -2.138   5.347   2.484  0.00  0.00    +0.088 A 
ATOM     28  C   UNL     1      -3.080   5.638   3.479  0.00  0.00    +0.063 A 
ATOM     29  C   UNL     1      -4.453   5.748   3.215  0.00  0.00    +0.015 A 
ATOM     30  C   UNL     1      -4.928   5.496   1.939  0.00  0.00    +0.002 A 
ATOM     31  C   UNL     1      -4.030   5.107   0.951  0.00  0.00    +0.013 A 
ATOM     32  C   UNL     1      -2.635   5.025   1.211  0.00  0.00    +0.041 A 
BRANCH  28  33
ATOM     33  C   UNL     1      -2.682   5.738   4.899  0.00  0.00    +0.244 C 
ATOM     34  N   UNL     1      -1.991   4.671   5.405  0.00  0.00    -0.325 N 
ATOM     35  O   UNL     1      -3.053   6.666   5.606  0.00  0.00    -0.270 OA
ATOM     36  H   UNL     1      -1.740   4.680   6.383  0.00  0.00    +0.145 HD
ATOM     37  H   UNL     1      -1.678   3.905   4.825  0.00  0.00    +0.145 HD
ENDBRANCH  28  33
ENDBRANCH  21  23
ENDBRANCH  20  21
ENDBRANCH   5  20
TORSDOF 6
