REMARK  Name = 
REMARK  7 active torsions:
REMARK  status: ('A' for Active; 'I' for Inactive)
REMARK    1  A    between atoms: C_1  and  C_2
REMARK    2  A    between atoms: C_2  and  N_3
REMARK    3  A    between atoms: C_2  and  C_17
REMARK    4  A    between atoms: N_3  and  C_4
REMARK    5  A    between atoms: C_9  and  C_10
REMARK    6  A    between atoms: C_21  and  N_22
REMARK    7  A    between atoms: C_23  and  C_25
REMARK                            x       y       z     vdW  Elec       q    Type
REMARK                         _______ _______ _______ _____ _____    ______ ____
ROOT
ATOM      1  C   UNL     1       1.397  -0.289  -0.865  0.00  0.00    +0.033 C 
ATOM      2  C   UNL     1       0.331  -1.387  -0.718  0.00  0.00    +0.099 C 
ENDROOT
BRANCH   2   3
ATOM      3  C   UNL     1      -0.995  -0.894  -0.135  0.00  0.00    -0.026 A 
ATOM      4  C   UNL     1      -1.161   0.315   0.549  0.00  0.00    +0.005 A 
ATOM      5  C   UNL     1      -2.409   0.670   1.084  0.00  0.00    +0.002 A 
ATOM      6  C   UNL     1      -3.508  -0.191   0.983  0.00  0.00    +0.023 A 
ATOM      7  C   UNL     1      -3.377  -1.384   0.290  0.00  0.00    +0.034 A 
ATOM      8  C   UNL     1      -2.141  -1.696  -0.286  0.00  0.00    +0.028 A 
BRANCH   7   9
ATOM      9  N   UNL     1      -4.340  -2.403   0.255  0.00  0.00    -0.285 N 
ATOM     10  C   UNL     1      -5.660  -2.438   0.560  0.00  0.00    +0.220 C 
ATOM     11  O   UNL     1      -6.076  -3.459   1.124  0.00  0.00    -0.275 OA
ATOM     12  H   UNL     1      -3.951  -3.340   0.253  0.00  0.00    +0.155 HD
BRANCH  10  13
ATOM     13  C   UNL     1      -6.673  -1.458  -0.012  0.00  0.00    +0.075 C 
ATOM     14  C   UNL     1      -6.289  -0.097  -0.565  0.00  0.00    +0.013 C 
ATOM     15  C   UNL     1      -7.509   0.300  -1.388  0.00  0.00    +0.001 C 
ATOM     16  C   UNL     1      -8.006  -0.996  -2.014  0.00  0.00    +0.001 C 
ATOM     17  C   UNL     1      -7.322  -2.119  -1.242  0.00  0.00    +0.013 C 
ENDBRANCH  10  13
ENDBRANCH   7   9
ENDBRANCH   2   3
BRANCH   2  18
ATOM     18  N   UNL     1       0.941  -2.459   0.082  0.00  0.00    -0.322 N 
ATOM     19  H   UNL     1       1.434  -2.120   0.905  0.00  0.00    +0.148 HD
BRANCH  18  20
ATOM     20  C   UNL     1       0.342  -3.652   0.430  0.00  0.00    +0.130 A 
ATOM     21  N   UNL     1       0.451  -3.899   1.743  0.00  0.00    -0.220 NA
ATOM     22  C   UNL     1      -0.288  -4.893   2.227  0.00  0.00    +0.223 A 
ATOM     23  N   UNL     1      -1.159  -5.629   1.530  0.00  0.00    -0.235 NA
ATOM     24  C   UNL     1      -1.219  -5.440   0.194  0.00  0.00    +0.088 A 
ATOM     25  C   UNL     1      -2.128  -6.145  -0.620  0.00  0.00    +0.063 A 
ATOM     26  C   UNL     1      -2.130  -5.992  -2.020  0.00  0.00    +0.015 A 
ATOM     27  C   UNL     1      -1.224  -5.146  -2.636  0.00  0.00    +0.002 A 
ATOM     28  C   UNL     1      -0.353  -4.407  -1.847  0.00  0.00    +0.013 A 
ATOM     29  C   UNL     1      -0.385  -4.493  -0.432  0.00  0.00    +0.041 A 
BRANCH  25  30
ATOM     30  C   UNL     1      -3.188  -7.048  -0.070  0.00  0.00    +0.244 C 
ATOM     31  N   UNL     1      -3.401  -7.052   1.276  0.00  0.00    -0.325 N 
ATOM     32  O   UNL     1      -3.884  -7.738  -0.807  0.00  0.00    -0.270 OA
ATOM     33  H   UNL     1      -4.148  -7.616   1.654  0.00  0.00    +0.145 HD
ATOM     34  H   UNL     1      -2.814  -6.512   1.905  0.00  0.00    +0.145 HD
ENDBRANCH  25  30
ENDBRANCH  18  20
ENDBRANCH   2  18
TORSDOF 6
