
 OpenBabel10152419243D

 32 35  0  0  0  0  0  0  0  0999 V2000
    9.9660  -12.5280   12.6070 C   0  0  0  0  0  0  0  0  0  0  0  0
   10.6230  -11.6180   13.4480 C   0  0  0  0  0  3  0  0  0  0  0  0
   10.6230  -10.2720   13.1240 C   0  0  0  0  0  3  0  0  0  0  0  0
    9.9650   -9.8540   11.9680 C   0  0  0  0  0  3  0  0  0  0  0  0
    9.2860  -10.7750   11.1240 C   0  0  0  0  0  0  0  0  0  0  0  0
    8.5860  -10.4130    9.9540 C   0  0  0  0  0  0  0  0  0  0  0  0
    8.5310   -9.0830    9.5460 N   0  0  0  0  0  0  0  0  0  0  0  0
    7.9900  -11.3300    9.1750 N   0  0  0  0  0  0  0  0  0  0  0  0
    8.0540  -12.6010    9.5730 C   0  0  0  0  0  3  0  0  0  0  0  0
    8.6540  -13.0460   10.6770 N   0  0  0  0  0  0  0  0  0  0  0  0
    9.2890  -12.1440   11.4440 C   0  0  0  0  0  0  0  0  0  0  0  0
    8.4480   -8.3890   10.2740 H   0  0  0  0  0  0  0  0  0  0  0  0
   10.7890  -14.7380   12.1530 N   0  0  0  0  0  0  0  0  0  0  0  0
   10.0370  -13.9520   12.9800 C   0  0  0  0  0  0  0  0  0  0  0  0
    9.4060  -14.4060   13.9230 O   0  0  0  0  0  0  0  0  0  0  0  0
   10.8560  -15.7220   12.3790 H   0  0  0  0  0  0  0  0  0  0  0  0
   11.3260  -14.3750   11.3790 H   0  0  0  0  0  0  0  0  0  0  0  0
    7.9170   -8.7190    8.2800 C   0  0  0  0  0  2  0  0  0  0  0  0
    6.4750   -9.1790    8.1910 C   0  0  0  0  0  0  0  0  0  0  0  0
    5.6060   -8.7270    7.1910 C   0  0  0  0  0  3  0  0  0  0  0  0
    4.2780   -9.1480    7.1630 C   0  0  0  0  0  3  0  0  0  0  0  0
    3.7920  -10.0050    8.1520 C   0  0  0  0  0  3  0  0  0  0  0  0
    4.6170  -10.4440    9.1910 C   0  0  0  0  0  0  0  0  0  0  0  0
    5.9590  -10.0280    9.1880 C   0  0  0  0  0  3  0  0  0  0  0  0
    4.1830  -11.2940   10.2180 N   0  0  0  0  0  0  0  0  0  0  0  0
    4.8210  -11.9480   11.2690 C   0  0  0  0  0  0  0  0  0  0  0  0
    6.0040  -11.4980   11.8450 C   0  0  0  0  0  3  0  0  0  0  0  0
    6.5730  -12.2150   12.8970 C   0  0  0  0  0  3  0  0  0  0  0  0
    5.9460  -13.3650   13.3510 C   0  0  0  0  0  3  0  0  0  0  0  0
    4.7630  -13.7370   12.7410 C   0  0  0  0  0  3  0  0  0  0  0  0
    4.1890  -13.0500   11.7280 N   0  0  0  0  0  0  0  0  0  0  0  0
    3.2770  -11.7210   10.0650 H   0  0  0  0  0  0  0  0  0  0  0  0
  1 14  1  0  0  0  0
  1  2  1  0  0  0  0
  3  2  2  0  0  0  0
  4  3  1  0  0  0  0
  5 11  1  0  0  0  0
  5  4  2  0  0  0  0
  6  5  1  0  0  0  0
  7  6  1  0  0  0  0
  7 12  1  0  0  0  0
  8  9  1  0  0  0  0
  8  6  2  0  0  0  0
  9 10  2  0  0  0  0
 10 11  1  0  0  0  0
 11  1  2  0  0  0  0
 13 16  1  0  0  0  0
 13 14  1  0  0  0  0
 14 15  2  0  0  0  0
 17 13  1  0  0  0  0
 18  7  1  0  0  0  0
 19 18  1  0  0  0  0
 19 24  1  0  0  0  0
 20 19  2  0  0  0  0
 21 20  1  0  0  0  0
 21 22  2  0  0  0  0
 22 23  1  0  0  0  0
 23 25  1  0  0  0  0
 24 23  2  0  0  0  0
 25 26  1  0  0  0  0
 26 31  2  0  0  0  0
 26 27  1  0  0  0  0
 27 28  2  0  0  0  0
 28 29  1  0  0  0  0
 30 29  2  0  0  0  0
 31 30  1  0  0  0  0
 32 25  1  0  0  0  0
M  END
>  <minimizedAffinity>
9.12833214

$$$$
