REMARK  Name = 
REMARK  4 active torsions:
REMARK  status: ('A' for Active; 'I' for Inactive)
REMARK    1  A    between atoms: C_2  and  C_4
REMARK    2  A    between atoms: N_10  and  C_11
REMARK    3  A    between atoms: C_11  and  C_12
REMARK    4  A    between atoms: C_16  and  N_17
REMARK                            x       y       z     vdW  Elec       q    Type
REMARK                         _______ _______ _______ _____ _____    ______ ____
ROOT
ATOM      1  C   UNL     1       1.022   2.712  -0.669  0.00  0.00    +0.063 A 
ATOM      2  C   UNL     1       1.981   2.743  -1.692  0.00  0.00    +0.015 A 
ATOM      3  C   UNL     1       2.599   3.942  -2.007  0.00  0.00    +0.002 A 
ATOM      4  C   UNL     1       2.253   5.089  -1.295  0.00  0.00    +0.013 A 
ATOM      5  C   UNL     1       1.292   5.054  -0.247  0.00  0.00    +0.041 A 
ATOM      6  C   UNL     1       0.915   6.174   0.523  0.00  0.00    +0.130 A 
ATOM      7  N   UNL     1       1.481   7.422   0.279  0.00  0.00    -0.324 N 
ATOM      8  N   UNL     1      -0.023   6.090   1.480  0.00  0.00    -0.220 NA
ATOM      9  C   UNL     1      -0.562   4.890   1.700  0.00  0.00    +0.223 A 
ATOM     10  N   UNL     1      -0.252   3.763   1.059  0.00  0.00    -0.235 NA
ATOM     11  C   UNL     1       0.656   3.841   0.072  0.00  0.00    +0.088 A 
ATOM     12  H   UNL     1       2.460   7.436   0.035  0.00  0.00    +0.148 HD
ENDROOT
BRANCH   1  14
ATOM     13  N   UNL     1       1.133   0.493   0.243  0.00  0.00    -0.325 N 
ATOM     14  C   UNL     1       0.367   1.418  -0.408  0.00  0.00    +0.244 C 
ATOM     15  O   UNL     1      -0.760   1.170  -0.812  0.00  0.00    -0.270 OA
ATOM     16  H   UNL     1       0.714  -0.408   0.435  0.00  0.00    +0.145 HD
ATOM     17  H   UNL     1       2.059   0.688   0.594  0.00  0.00    +0.145 HD
ENDBRANCH   1  14
BRANCH   7  18
ATOM     18  C   UNL     1       1.009   8.602   0.985  0.00  0.00    +0.138 C 
BRANCH  18  19
ATOM     19  C   UNL     1       1.999   9.077   2.030  0.00  0.00    -0.029 A 
ATOM     20  C   UNL     1       2.747   8.188   2.811  0.00  0.00    +0.005 A 
ATOM     21  C   UNL     1       3.623   8.665   3.784  0.00  0.00    +0.002 A 
ATOM     22  C   UNL     1       3.743  10.037   4.010  0.00  0.00    +0.023 A 
ATOM     23  C   UNL     1       2.982  10.954   3.281  0.00  0.00    +0.033 A 
ATOM     24  C   UNL     1       2.122  10.456   2.288  0.00  0.00    +0.028 A 
BRANCH  23  25
ATOM     25  N   UNL     1       3.049  12.341   3.472  0.00  0.00    -0.299 N 
ATOM     26  C   UNL     1       3.978  13.194   4.063  0.00  0.00    +0.123 A 
ATOM     27  C   UNL     1       5.332  12.895   4.170  0.00  0.00    +0.044 A 
ATOM     28  C   UNL     1       6.193  13.810   4.775  0.00  0.00    +0.005 A 
ATOM     29  C   UNL     1       5.682  15.005   5.258  0.00  0.00    +0.020 A 
ATOM     30  C   UNL     1       4.329  15.239   5.096  0.00  0.00    +0.113 A 
ATOM     31  N   UNL     1       3.480  14.370   4.503  0.00  0.00    -0.240 NA
ATOM     32  H   UNL     1       2.165  12.828   3.381  0.00  0.00    +0.154 HD
ENDBRANCH  23  25
ENDBRANCH  18  19
ENDBRANCH   7  18
TORSDOF 4
