
 OpenBabel10152418393D

 37 40  0  0  0  0  0  0  0  0999 V2000
   -0.6860   -9.6040  -24.0980 C   0  0  0  0  0  0  0  0  0  0  0  0
   -1.5630  -10.0320  -25.0960 C   0  0  0  0  0  3  0  0  0  0  0  0
   -1.1590  -11.0040  -26.0040 C   0  0  0  0  0  3  0  0  0  0  0  0
    0.1100  -11.5690  -25.8970 C   0  0  0  0  0  3  0  0  0  0  0  0
    0.9680  -11.2380  -24.8370 C   0  0  0  0  0  0  0  0  0  0  0  0
    0.5440  -10.2560  -23.9300 C   0  0  0  0  0  3  0  0  0  0  0  0
   -0.9820   -7.1500  -23.5600 C   0  0  0  0  0  0  0  0  0  0  0  0
   -1.1740   -6.3530  -22.6420 O   0  0  0  0  0  0  0  0  0  0  0  0
   -1.0900   -8.5040  -23.3230 N   0  0  0  0  0  0  0  0  0  0  0  0
   -1.5750   -8.7030  -22.4560 H   0  0  0  0  0  0  0  0  0  0  0  0
   -1.0790   -2.4210  -26.0300 C   0  0  0  0  0  1  0  0  0  0  0  0
   -0.5760   -3.4920  -26.8470 N   0  0  0  0  0  0  0  0  0  0  0  0
   -0.5230   -4.8080  -26.4780 C   0  0  0  0  0  0  0  0  0  0  0  0
   -0.6710   -5.2460  -25.1740 C   0  0  0  0  0  3  0  0  0  0  0  0
   -0.7280   -6.6190  -24.9190 C   0  0  0  0  0  0  0  0  0  0  0  0
   -0.5100   -7.5220  -25.9520 C   0  0  0  0  0  3  0  0  0  0  0  0
   -0.3120   -7.0010  -27.2110 C   0  0  0  0  0  3  0  0  0  0  0  0
   -0.3370   -5.6780  -27.4890 N   0  0  0  0  0  0  0  0  0  0  0  0
   -0.4580   -3.3500  -27.8430 H   0  0  0  0  0  0  0  0  0  0  0  0
    2.3420  -11.8780  -24.6980 C   0  0  0  0  0  2  0  0  0  0  0  0
    3.3760  -11.0640  -25.3090 N   0  0  0  0  0  0  0  0  0  0  0  0
    4.1500  -10.7520  -24.7470 H   0  0  0  0  0  0  0  0  0  0  0  0
    3.4050  -10.9360  -26.6900 C   0  0  0  0  0  0  0  0  0  0  0  0
    3.7270  -12.0380  -27.3890 N   0  0  0  0  0  0  0  0  0  0  0  0
    4.0370  -11.8690  -28.6710 C   0  0  0  0  0  3  0  0  0  0  0  0
    4.1470  -10.6950  -29.2940 N   0  0  0  0  0  0  0  0  0  0  0  0
    3.7920   -9.5880  -28.6110 C   0  0  0  0  0  0  0  0  0  0  0  0
    3.9000   -8.3120  -29.1790 C   0  0  0  0  0  0  0  0  0  0  0  0
    3.4510   -7.1540  -28.5250 C   0  0  0  0  0  3  0  0  0  0  0  0
    2.9420   -7.2430  -27.2410 C   0  0  0  0  0  3  0  0  0  0  0  0
    2.9120   -8.4840  -26.6130 C   0  0  0  0  0  3  0  0  0  0  0  0
    3.3350   -9.6630  -27.2850 C   0  0  0  0  0  0  0  0  0  0  0  0
    4.5870   -8.0960  -30.4740 C   0  0  0  0  0  0  0  0  0  0  0  0
    4.9740   -6.8130  -30.7500 N   0  0  0  0  0  0  0  0  0  0  0  0
    4.7030   -8.9940  -31.2950 O   0  0  0  0  0  0  0  0  0  0  0  0
    5.4050   -6.6220  -31.6430 H   0  0  0  0  0  0  0  0  0  0  0  0
    4.9050   -6.0720  -30.0660 H   0  0  0  0  0  0  0  0  0  0  0  0
  1  6  1  0  0  0  0
  1  9  1  0  0  0  0
  2  1  2  0  0  0  0
  3  4  2  0  0  0  0
  3  2  1  0  0  0  0
  4  5  1  0  0  0  0
  5 20  1  0  0  0  0
  5  6  2  0  0  0  0
  7  9  1  0  0  0  0
  7  8  2  0  0  0  0
  9 10  1  0  0  0  0
 12 13  1  0  0  0  0
 12 11  1  0  0  0  0
 13 14  1  0  0  0  0
 14 15  2  0  0  0  0
 15  7  1  0  0  0  0
 16 15  1  0  0  0  0
 17 16  2  0  0  0  0
 18 17  1  0  0  0  0
 18 13  2  0  0  0  0
 19 12  1  0  0  0  0
 21 22  1  0  0  0  0
 21 20  1  0  0  0  0
 23 21  1  0  0  0  0
 24 23  2  0  0  0  0
 25 24  1  0  0  0  0
 26 25  2  0  0  0  0
 26 27  1  0  0  0  0
 27 32  1  0  0  0  0
 28 27  2  0  0  0  0
 28 29  1  0  0  0  0
 29 30  2  0  0  0  0
 30 31  1  0  0  0  0
 32 23  1  0  0  0  0
 32 31  2  0  0  0  0
 33 28  1  0  0  0  0
 34 33  1  0  0  0  0
 34 37  1  0  0  0  0
 35 33  2  0  0  0  0
 36 34  1  0  0  0  0
M  END
>  <minimizedAffinity>
-9.01109695

$$$$

 OpenBabel10152418393D

 37 40  0  0  0  0  0  0  0  0999 V2000
    0.8920  -11.4720  -25.7370 C   0  0  0  0  0  0  0  0  0  0  0  0
    1.1040  -11.8660  -24.4140 C   0  0  0  0  0  3  0  0  0  0  0  0
    2.4000  -12.0390  -23.9410 C   0  0  0  0  0  3  0  0  0  0  0  0
    3.4830  -11.7880  -24.7800 C   0  0  0  0  0  3  0  0  0  0  0  0
    3.3000  -11.2850  -26.0770 C   0  0  0  0  0  0  0  0  0  0  0  0
    1.9860  -11.1170  -26.5370 C   0  0  0  0  0  3  0  0  0  0  0  0
   -1.5810  -10.9440  -25.6550 C   0  0  0  0  0  0  0  0  0  0  0  0
   -2.6800  -11.2780  -26.0930 O   0  0  0  0  0  0  0  0  0  0  0  0
   -0.4350  -11.4820  -26.2000 N   0  0  0  0  0  0  0  0  0  0  0  0
   -0.6070  -11.9190  -27.0990 H   0  0  0  0  0  0  0  0  0  0  0  0
   -2.0700  -10.6500  -20.3490 C   0  0  0  0  0  1  0  0  0  0  0  0
   -1.6730   -9.4120  -20.9650 N   0  0  0  0  0  0  0  0  0  0  0  0
   -1.5550   -9.2030  -22.3110 C   0  0  0  0  0  0  0  0  0  0  0  0
   -1.5170  -10.2220  -23.2460 C   0  0  0  0  0  3  0  0  0  0  0  0
   -1.5230   -9.9000  -24.6060 C   0  0  0  0  0  0  0  0  0  0  0  0
   -1.4410   -8.5710  -25.0000 C   0  0  0  0  0  3  0  0  0  0  0  0
   -1.4250   -7.6190  -24.0040 C   0  0  0  0  0  3  0  0  0  0  0  0
   -1.5020   -7.9100  -22.6860 N   0  0  0  0  0  0  0  0  0  0  0  0
   -1.6960   -8.5540  -20.4260 H   0  0  0  0  0  0  0  0  0  0  0  0
    4.4830  -10.9800  -26.9860 C   0  0  0  0  0  2  0  0  0  0  0  0
    4.7270   -9.5530  -27.0840 N   0  0  0  0  0  0  0  0  0  0  0  0
    5.5800   -9.1750  -26.7070 H   0  0  0  0  0  0  0  0  0  0  0  0
    3.9090   -8.7820  -27.8960 C   0  0  0  0  0  0  0  0  0  0  0  0
    4.2490   -8.7100  -29.1950 N   0  0  0  0  0  0  0  0  0  0  0  0
    3.6590   -7.7640  -29.9200 C   0  0  0  0  0  3  0  0  0  0  0  0
    2.8340   -6.8270  -29.4500 N   0  0  0  0  0  0  0  0  0  0  0  0
    2.4610   -6.9130  -28.1570 C   0  0  0  0  0  0  0  0  0  0  0  0
    1.6180   -5.9580  -27.5730 C   0  0  0  0  0  0  0  0  0  0  0  0
    1.1410   -6.0760  -26.2580 C   0  0  0  0  0  3  0  0  0  0  0  0
    1.5590   -7.1310  -25.4660 C   0  0  0  0  0  3  0  0  0  0  0  0
    2.4720   -8.0430  -25.9870 C   0  0  0  0  0  3  0  0  0  0  0  0
    2.9310   -7.9450  -27.3280 C   0  0  0  0  0  0  0  0  0  0  0  0
    1.2560   -4.7090  -28.2820 C   0  0  0  0  0  0  0  0  0  0  0  0
    0.3220   -4.8230  -29.2760 N   0  0  0  0  0  0  0  0  0  0  0  0
    1.8390   -3.6570  -28.0650 O   0  0  0  0  0  0  0  0  0  0  0  0
    0.0850   -4.0000  -29.8100 H   0  0  0  0  0  0  0  0  0  0  0  0
   -0.1820   -5.6830  -29.4440 H   0  0  0  0  0  0  0  0  0  0  0  0
  1  2  1  0  0  0  0
  2  3  2  0  0  0  0
  4  3  1  0  0  0  0
  5  4  2  0  0  0  0
  6  5  1  0  0  0  0
  6  1  2  0  0  0  0
  7 15  1  0  0  0  0
  8  7  2  0  0  0  0
  9  1  1  0  0  0  0
  9  7  1  0  0  0  0
 10  9  1  0  0  0  0
 12 19  1  0  0  0  0
 12 11  1  0  0  0  0
 13 12  1  0  0  0  0
 14 13  2  0  0  0  0
 15 14  1  0  0  0  0
 16 15  2  0  0  0  0
 16 17  1  0  0  0  0
 17 18  2  0  0  0  0
 18 13  1  0  0  0  0
 20  5  1  0  0  0  0
 21 20  1  0  0  0  0
 21 22  1  0  0  0  0
 23 32  1  0  0  0  0
 23 21  1  0  0  0  0
 24 23  2  0  0  0  0
 25 26  2  0  0  0  0
 25 24  1  0  0  0  0
 26 27  1  0  0  0  0
 27 28  2  0  0  0  0
 27 32  1  0  0  0  0
 28 29  1  0  0  0  0
 29 30  2  0  0  0  0
 31 30  1  0  0  0  0
 32 31  2  0  0  0  0
 33 35  2  0  0  0  0
 33 28  1  0  0  0  0
 34 33  1  0  0  0  0
 36 34  1  0  0  0  0
 37 34  1  0  0  0  0
M  END
>  <minimizedAffinity>
-8.88092804

$$$$

 OpenBabel10152418393D

 37 40  0  0  0  0  0  0  0  0999 V2000
    3.9990   -9.4280  -27.2610 C   0  0  0  0  0  0  0  0  0  0  0  0
    4.1550  -10.2560  -28.3750 C   0  0  0  0  0  3  0  0  0  0  0  0
    3.6800  -11.5620  -28.3390 C   0  0  0  0  0  3  0  0  0  0  0  0
    3.0230  -12.0310  -27.2040 C   0  0  0  0  0  3  0  0  0  0  0  0
    2.7550  -11.1870  -26.1160 C   0  0  0  0  0  0  0  0  0  0  0  0
    3.2410   -9.8720  -26.1690 C   0  0  0  0  0  3  0  0  0  0  0  0
    4.1780   -6.9330  -27.6370 C   0  0  0  0  0  0  0  0  0  0  0  0
    4.9720   -6.0160  -27.8410 O   0  0  0  0  0  0  0  0  0  0  0  0
    4.6490   -8.1830  -27.2960 N   0  0  0  0  0  0  0  0  0  0  0  0
    5.6170   -8.1590  -26.9950 H   0  0  0  0  0  0  0  0  0  0  0  0
    0.2210   -6.1200  -24.1500 C   0  0  0  0  0  1  0  0  0  0  0  0
   -0.1590   -5.9030  -25.5200 N   0  0  0  0  0  0  0  0  0  0  0  0
    0.6440   -6.1190  -26.6050 C   0  0  0  0  0  0  0  0  0  0  0  0
    2.0140   -6.2950  -26.5230 C   0  0  0  0  0  3  0  0  0  0  0  0
    2.7270   -6.6370  -27.6760 C   0  0  0  0  0  0  0  0  0  0  0  0
    2.0780   -6.6720  -28.9030 C   0  0  0  0  0  3  0  0  0  0  0  0
    0.7230   -6.4280  -28.9050 C   0  0  0  0  0  3  0  0  0  0  0  0
    0.0030   -6.1780  -27.7890 N   0  0  0  0  0  0  0  0  0  0  0  0
   -1.1390   -5.8060  -25.7590 H   0  0  0  0  0  0  0  0  0  0  0  0
    2.0080  -11.6860  -24.8870 C   0  0  0  0  0  2  0  0  0  0  0  0
    0.6360  -12.0390  -25.2010 N   0  0  0  0  0  0  0  0  0  0  0  0
    0.3980  -13.0070  -25.3340 H   0  0  0  0  0  0  0  0  0  0  0  0
   -0.3530  -11.0760  -25.0760 C   0  0  0  0  0  0  0  0  0  0  0  0
   -0.5180  -10.2450  -26.1200 N   0  0  0  0  0  0  0  0  0  0  0  0
   -1.2490   -9.1530  -25.9110 C   0  0  0  0  0  3  0  0  0  0  0  0
   -1.7500   -8.7680  -24.7370 N   0  0  0  0  0  0  0  0  0  0  0  0
   -1.6200   -9.6120  -23.6930 C   0  0  0  0  0  0  0  0  0  0  0  0
   -2.0940   -9.2770  -22.4180 C   0  0  0  0  0  0  0  0  0  0  0  0
   -2.0540  -10.1740  -21.3390 C   0  0  0  0  0  3  0  0  0  0  0  0
   -1.4670  -11.4170  -21.4980 C   0  0  0  0  0  3  0  0  0  0  0  0
   -0.9000  -11.7410  -22.7270 C   0  0  0  0  0  3  0  0  0  0  0  0
   -0.9680  -10.8490  -23.8310 C   0  0  0  0  0  0  0  0  0  0  0  0
   -2.5810   -7.9130  -22.1070 C   0  0  0  0  0  0  0  0  0  0  0  0
   -3.8080   -7.5770  -22.6100 N   0  0  0  0  0  0  0  0  0  0  0  0
   -1.8780   -7.0990  -21.5260 O   0  0  0  0  0  0  0  0  0  0  0  0
   -4.1510   -6.6400  -22.4550 H   0  0  0  0  0  0  0  0  0  0  0  0
   -4.4050   -8.2520  -23.0690 H   0  0  0  0  0  0  0  0  0  0  0  0
  1  6  1  0  0  0  0
  2  3  1  0  0  0  0
  2  1  2  0  0  0  0
  3  4  2  0  0  0  0
  4  5  1  0  0  0  0
  5 20  1  0  0  0  0
  6  5  2  0  0  0  0
  7  9  1  0  0  0  0
  8  7  2  0  0  0  0
  9  1  1  0  0  0  0
  9 10  1  0  0  0  0
 12 11  1  0  0  0  0
 13 14  1  0  0  0  0
 13 12  1  0  0  0  0
 15  7  1  0  0  0  0
 15 14  2  0  0  0  0
 16 15  1  0  0  0  0
 17 16  2  0  0  0  0
 17 18  1  0  0  0  0
 18 13  2  0  0  0  0
 19 12  1  0  0  0  0
 21 23  1  0  0  0  0
 21 20  1  0  0  0  0
 22 21  1  0  0  0  0
 23 32  1  0  0  0  0
 24 25  1  0  0  0  0
 24 23  2  0  0  0  0
 25 26  2  0  0  0  0
 26 27  1  0  0  0  0
 27 28  1  0  0  0  0
 28 33  1  0  0  0  0
 28 29  2  0  0  0  0
 30 29  1  0  0  0  0
 31 30  2  0  0  0  0
 32 27  2  0  0  0  0
 32 31  1  0  0  0  0
 33 35  2  0  0  0  0
 34 36  1  0  0  0  0
 34 33  1  0  0  0  0
 37 34  1  0  0  0  0
M  END
>  <minimizedAffinity>
-8.72508717

$$$$

 OpenBabel10152418393D

 37 40  0  0  0  0  0  0  0  0999 V2000
   -1.4860   -8.5060  -22.4130 C   0  0  0  0  0  0  0  0  0  0  0  0
   -1.5270   -7.4180  -21.5380 C   0  0  0  0  0  3  0  0  0  0  0  0
   -1.3730   -6.1270  -22.0300 C   0  0  0  0  0  3  0  0  0  0  0  0
   -1.2080   -5.9200  -23.3970 C   0  0  0  0  0  3  0  0  0  0  0  0
   -1.2740   -6.9850  -24.3090 C   0  0  0  0  0  0  0  0  0  0  0  0
   -1.4310   -8.2810  -23.7950 C   0  0  0  0  0  3  0  0  0  0  0  0
   -1.3790  -11.0330  -22.4180 C   0  0  0  0  0  0  0  0  0  0  0  0
   -1.6390  -12.0370  -21.7570 O   0  0  0  0  0  0  0  0  0  0  0  0
   -1.4760   -9.7870  -21.8370 N   0  0  0  0  0  0  0  0  0  0  0  0
   -1.5100   -9.8380  -20.8240 H   0  0  0  0  0  0  0  0  0  0  0  0
    3.2710  -12.0360  -24.8360 C   0  0  0  0  0  1  0  0  0  0  0  0
    2.1440  -12.0180  -25.7300 N   0  0  0  0  0  0  0  0  0  0  0  0
    0.8610  -11.7090  -25.3740 C   0  0  0  0  0  0  0  0  0  0  0  0
    0.4180  -11.6550  -24.0650 C   0  0  0  0  0  3  0  0  0  0  0  0
   -0.8790  -11.2050  -23.8010 C   0  0  0  0  0  0  0  0  0  0  0  0
   -1.7430  -10.9390  -24.8550 C   0  0  0  0  0  3  0  0  0  0  0  0
   -1.2410  -11.0730  -26.1300 C   0  0  0  0  0  3  0  0  0  0  0  0
    0.0350  -11.4270  -26.4020 N   0  0  0  0  0  0  0  0  0  0  0  0
    2.2980  -12.0020  -26.7310 H   0  0  0  0  0  0  0  0  0  0  0  0
   -1.1270   -6.7600  -25.8070 C   0  0  0  0  0  2  0  0  0  0  0  0
   -0.4200   -5.5260  -26.0950 N   0  0  0  0  0  0  0  0  0  0  0  0
   -0.6230   -4.7060  -25.5490 H   0  0  0  0  0  0  0  0  0  0  0  0
    0.6770   -5.5590  -26.9430 C   0  0  0  0  0  0  0  0  0  0  0  0
    0.6420   -4.7320  -28.0020 N   0  0  0  0  0  0  0  0  0  0  0  0
    1.5320   -4.9500  -28.9660 C   0  0  0  0  0  3  0  0  0  0  0  0
    2.3890   -5.9710  -29.0140 N   0  0  0  0  0  0  0  0  0  0  0  0
    2.4550   -6.7850  -27.9410 C   0  0  0  0  0  0  0  0  0  0  0  0
    3.3070   -7.8960  -27.9160 C   0  0  0  0  0  0  0  0  0  0  0  0
    3.4620   -8.7030  -26.7780 C   0  0  0  0  0  3  0  0  0  0  0  0
    2.7030   -8.4520  -25.6480 C   0  0  0  0  0  3  0  0  0  0  0  0
    1.7770   -7.4150  -25.6760 C   0  0  0  0  0  3  0  0  0  0  0  0
    1.6420   -6.5750  -26.8150 C   0  0  0  0  0  0  0  0  0  0  0  0
    4.0290   -8.3450  -29.1300 C   0  0  0  0  0  0  0  0  0  0  0  0
    4.8600   -7.4300  -29.7160 N   0  0  0  0  0  0  0  0  0  0  0  0
    3.8090   -9.4350  -29.6390 O   0  0  0  0  0  0  0  0  0  0  0  0
    5.3330   -7.6870  -30.5700 H   0  0  0  0  0  0  0  0  0  0  0  0
    5.0650   -6.5380  -29.2870 H   0  0  0  0  0  0  0  0  0  0  0  0
  1  9  1  0  0  0  0
  1  2  1  0  0  0  0
  3  2  2  0  0  0  0
  4  3  1  0  0  0  0
  5  6  1  0  0  0  0
  5  4  2  0  0  0  0
  6  1  2  0  0  0  0
  7  9  1  0  0  0  0
  7  8  2  0  0  0  0
  9 10  1  0  0  0  0
 12 13  1  0  0  0  0
 12 11  1  0  0  0  0
 13 14  1  0  0  0  0
 14 15  2  0  0  0  0
 15  7  1  0  0  0  0
 16 15  1  0  0  0  0
 17 16  2  0  0  0  0
 18 17  1  0  0  0  0
 18 13  2  0  0  0  0
 19 12  1  0  0  0  0
 20  5  1  0  0  0  0
 21 20  1  0  0  0  0
 21 22  1  0  0  0  0
 23 32  1  0  0  0  0
 23 21  1  0  0  0  0
 24 23  2  0  0  0  0
 25 24  1  0  0  0  0
 26 25  2  0  0  0  0
 26 27  1  0  0  0  0
 27 28  2  0  0  0  0
 27 32  1  0  0  0  0
 28 29  1  0  0  0  0
 29 30  2  0  0  0  0
 31 30  1  0  0  0  0
 32 31  2  0  0  0  0
 33 28  1  0  0  0  0
 34 37  1  0  0  0  0
 34 33  1  0  0  0  0
 35 33  2  0  0  0  0
 36 34  1  0  0  0  0
M  END
>  <minimizedAffinity>
-8.53528309

$$$$

 OpenBabel10152418393D

 37 40  0  0  0  0  0  0  0  0999 V2000
    4.0180  -10.2020  -27.8000 C   0  0  0  0  0  0  0  0  0  0  0  0
    4.9400  -10.7500  -26.9050 C   0  0  0  0  0  3  0  0  0  0  0  0
    4.5160  -11.6570  -25.9400 C   0  0  0  0  0  3  0  0  0  0  0  0
    3.1770  -12.0390  -25.8890 C   0  0  0  0  0  3  0  0  0  0  0  0
    2.2530  -11.5890  -26.8450 C   0  0  0  0  0  0  0  0  0  0  0  0
    2.6990  -10.6760  -27.8110 C   0  0  0  0  0  3  0  0  0  0  0  0
    3.9240   -7.9420  -28.9310 C   0  0  0  0  0  0  0  0  0  0  0  0
    4.3610   -7.2880  -29.8770 O   0  0  0  0  0  0  0  0  0  0  0  0
    4.4770   -9.1690  -28.6340 N   0  0  0  0  0  0  0  0  0  0  0  0
    5.3780   -9.3010  -29.0800 H   0  0  0  0  0  0  0  0  0  0  0  0
    1.9590   -8.6150  -24.0150 C   0  0  0  0  0  1  0  0  0  0  0  0
    1.4080   -7.4820  -24.7100 N   0  0  0  0  0  0  0  0  0  0  0  0
    1.6860   -7.1400  -26.0040 C   0  0  0  0  0  0  0  0  0  0  0  0
    2.7470   -7.6590  -26.7250 C   0  0  0  0  0  3  0  0  0  0  0  0
    2.8690   -7.3420  -28.0810 C   0  0  0  0  0  0  0  0  0  0  0  0
    2.0050   -6.4170  -28.6540 C   0  0  0  0  0  3  0  0  0  0  0  0
    1.0120   -5.9030  -27.8500 C   0  0  0  0  0  3  0  0  0  0  0  0
    0.8280   -6.2610  -26.5590 N   0  0  0  0  0  0  0  0  0  0  0  0
    0.5900   -7.0150  -24.3380 H   0  0  0  0  0  0  0  0  0  0  0  0
    0.7970  -12.0300  -26.8120 C   0  0  0  0  0  2  0  0  0  0  0  0
    0.2650  -12.0210  -25.4620 N   0  0  0  0  0  0  0  0  0  0  0  0
    0.6490  -12.6530  -24.7800 H   0  0  0  0  0  0  0  0  0  0  0  0
   -0.5810  -10.9920  -25.0770 C   0  0  0  0  0  0  0  0  0  0  0  0
   -0.8380  -10.0490  -26.0010 N   0  0  0  0  0  0  0  0  0  0  0  0
   -1.4030   -8.9240  -25.5720 C   0  0  0  0  0  3  0  0  0  0  0  0
   -1.6480   -8.6160  -24.2970 N   0  0  0  0  0  0  0  0  0  0  0  0
   -1.4250   -9.5680  -23.3690 C   0  0  0  0  0  0  0  0  0  0  0  0
   -1.6310   -9.3220  -22.0050 C   0  0  0  0  0  0  0  0  0  0  0  0
   -1.4960  -10.3230  -21.0290 C   0  0  0  0  0  3  0  0  0  0  0  0
   -1.0800  -11.5910  -21.3960 C   0  0  0  0  0  3  0  0  0  0  0  0
   -0.7740  -11.8380  -22.7310 C   0  0  0  0  0  3  0  0  0  0  0  0
   -0.9410  -10.8370  -23.7260 C   0  0  0  0  0  0  0  0  0  0  0  0
   -1.9110   -7.9590  -21.4970 C   0  0  0  0  0  0  0  0  0  0  0  0
   -1.3270   -6.9260  -22.1790 N   0  0  0  0  0  0  0  0  0  0  0  0
   -2.5370   -7.7760  -20.4640 O   0  0  0  0  0  0  0  0  0  0  0  0
   -1.4600   -5.9860  -21.8350 H   0  0  0  0  0  0  0  0  0  0  0  0
   -0.8300   -7.0670  -23.0480 H   0  0  0  0  0  0  0  0  0  0  0  0
  1  2  1  0  0  0  0
  2  3  2  0  0  0  0
  3  4  1  0  0  0  0
  5 20  1  0  0  0  0
  5  4  2  0  0  0  0
  6  1  2  0  0  0  0
  6  5  1  0  0  0  0
  7  9  1  0  0  0  0
  7 15  1  0  0  0  0
  8  7  2  0  0  0  0
  9  1  1  0  0  0  0
 10  9  1  0  0  0  0
 12 19  1  0  0  0  0
 12 11  1  0  0  0  0
 13 12  1  0  0  0  0
 14 13  2  0  0  0  0
 15 14  1  0  0  0  0
 16 15  2  0  0  0  0
 16 17  1  0  0  0  0
 17 18  2  0  0  0  0
 18 13  1  0  0  0  0
 20 21  1  0  0  0  0
 21 23  1  0  0  0  0
 21 22  1  0  0  0  0
 23 32  1  0  0  0  0
 24 25  1  0  0  0  0
 24 23  2  0  0  0  0
 25 26  2  0  0  0  0
 26 27  1  0  0  0  0
 27 28  1  0  0  0  0
 28 33  1  0  0  0  0
 28 29  2  0  0  0  0
 30 29  1  0  0  0  0
 31 30  2  0  0  0  0
 32 27  2  0  0  0  0
 32 31  1  0  0  0  0
 33 35  2  0  0  0  0
 34 36  1  0  0  0  0
 34 33  1  0  0  0  0
 37 34  1  0  0  0  0
M  END
>  <minimizedAffinity>
-8.46489716

$$$$

 OpenBabel10152418393D

 37 40  0  0  0  0  0  0  0  0999 V2000
    3.0460   -6.7170  -28.9100 C   0  0  0  0  0  0  0  0  0  0  0  0
    3.0860   -7.1070  -30.2510 C   0  0  0  0  0  3  0  0  0  0  0  0
    3.6130   -8.3460  -30.5970 C   0  0  0  0  0  3  0  0  0  0  0  0
    4.0700   -9.2070  -29.6020 C   0  0  0  0  0  3  0  0  0  0  0  0
    3.9380   -8.8870  -28.2420 C   0  0  0  0  0  0  0  0  0  0  0  0
    3.4050   -7.6330  -27.9120 C   0  0  0  0  0  3  0  0  0  0  0  0
    1.5080   -4.8840  -28.0890 C   0  0  0  0  0  0  0  0  0  0  0  0
    1.2690   -3.6810  -28.1710 O   0  0  0  0  0  0  0  0  0  0  0  0
    2.6630   -5.3920  -28.6440 N   0  0  0  0  0  0  0  0  0  0  0  0
    3.3400   -4.6650  -28.8490 H   0  0  0  0  0  0  0  0  0  0  0  0
   -0.2670   -5.2350  -23.0690 C   0  0  0  0  0  1  0  0  0  0  0  0
   -0.9170   -6.1410  -23.9780 N   0  0  0  0  0  0  0  0  0  0  0  0
   -0.5910   -6.3020  -25.2970 C   0  0  0  0  0  0  0  0  0  0  0  0
    0.2030   -5.4180  -26.0050 C   0  0  0  0  0  3  0  0  0  0  0  0
    0.5810   -5.7400  -27.3120 C   0  0  0  0  0  0  0  0  0  0  0  0
    0.0580   -6.8720  -27.9230 C   0  0  0  0  0  3  0  0  0  0  0  0
   -0.7730   -7.6680  -27.1650 C   0  0  0  0  0  3  0  0  0  0  0  0
   -1.0830   -7.4160  -25.8740 N   0  0  0  0  0  0  0  0  0  0  0  0
   -1.4980   -6.8860  -23.6140 H   0  0  0  0  0  0  0  0  0  0  0  0
    4.4070   -9.8390  -27.1520 C   0  0  0  0  0  2  0  0  0  0  0  0
    3.2980  -10.5670  -26.5640 N   0  0  0  0  0  0  0  0  0  0  0  0
    3.3050  -11.5730  -26.5870 H   0  0  0  0  0  0  0  0  0  0  0  0
    2.3810   -9.8830  -25.7810 C   0  0  0  0  0  0  0  0  0  0  0  0
    2.8460   -8.8190  -25.1030 N   0  0  0  0  0  0  0  0  0  0  0  0
    2.0700   -8.3310  -24.1400 C   0  0  0  0  0  3  0  0  0  0  0  0
    0.9170   -8.8630  -23.7290 N   0  0  0  0  0  0  0  0  0  0  0  0
    0.4260   -9.9080  -24.4250 C   0  0  0  0  0  0  0  0  0  0  0  0
   -0.7640  -10.5440  -24.0490 C   0  0  0  0  0  0  0  0  0  0  0  0
   -1.3440  -11.5720  -24.8090 C   0  0  0  0  0  3  0  0  0  0  0  0
   -0.6980  -12.0390  -25.9400 C   0  0  0  0  0  3  0  0  0  0  0  0
    0.5350  -11.4940  -26.2850 C   0  0  0  0  0  3  0  0  0  0  0  0
    1.1080  -10.4300  -25.5370 C   0  0  0  0  0  0  0  0  0  0  0  0
   -1.4360  -10.2320  -22.7660 C   0  0  0  0  0  0  0  0  0  0  0  0
   -1.9960   -8.9880  -22.6610 N   0  0  0  0  0  0  0  0  0  0  0  0
   -1.3960  -11.0020  -21.8180 O   0  0  0  0  0  0  0  0  0  0  0  0
   -2.4230   -8.7250  -21.7840 H   0  0  0  0  0  0  0  0  0  0  0  0
   -2.0560   -8.3560  -23.4480 H   0  0  0  0  0  0  0  0  0  0  0  0
  1  9  1  0  0  0  0
  1  6  1  0  0  0  0
  2  1  2  0  0  0  0
  3  2  1  0  0  0  0
  3  4  2  0  0  0  0
  4  5  1  0  0  0  0
  5  6  2  0  0  0  0
  5 20  1  0  0  0  0
  7 15  1  0  0  0  0
  8  7  2  0  0  0  0
  9  7  1  0  0  0  0
 10  9  1  0  0  0  0
 12 19  1  0  0  0  0
 12 11  1  0  0  0  0
 13 12  1  0  0  0  0
 14 13  2  0  0  0  0
 15 14  1  0  0  0  0
 16 15  2  0  0  0  0
 16 17  1  0  0  0  0
 17 18  2  0  0  0  0
 18 13  1  0  0  0  0
 20 21  1  0  0  0  0
 21 23  1  0  0  0  0
 22 21  1  0  0  0  0
 23 32  2  0  0  0  0
 23 24  1  0  0  0  0
 24 25  2  0  0  0  0
 25 26  1  0  0  0  0
 27 28  1  0  0  0  0
 27 26  2  0  0  0  0
 28 33  1  0  0  0  0
 29 28  2  0  0  0  0
 30 29  1  0  0  0  0
 31 30  2  0  0  0  0
 31 32  1  0  0  0  0
 32 27  1  0  0  0  0
 33 34  1  0  0  0  0
 33 35  2  0  0  0  0
 34 36  1  0  0  0  0
 37 34  1  0  0  0  0
M  END
>  <minimizedAffinity>
-7.79125071

$$$$

 OpenBabel10152418393D

 37 40  0  0  0  0  0  0  0  0999 V2000
    3.3310   -7.5580  -28.4070 C   0  0  0  0  0  0  0  0  0  0  0  0
    4.3490   -7.2280  -27.5090 C   0  0  0  0  0  3  0  0  0  0  0  0
    4.9670   -8.2270  -26.7660 C   0  0  0  0  0  3  0  0  0  0  0  0
    4.5910   -9.5570  -26.9420 C   0  0  0  0  0  3  0  0  0  0  0  0
    3.6510   -9.9260  -27.9170 C   0  0  0  0  0  0  0  0  0  0  0  0
    3.0380   -8.9050  -28.6570 C   0  0  0  0  0  3  0  0  0  0  0  0
    1.4930   -5.8300  -28.5920 C   0  0  0  0  0  0  0  0  0  0  0  0
    0.9040   -5.0900  -29.3790 O   0  0  0  0  0  0  0  0  0  0  0  0
    2.6320   -6.4910  -28.9970 N   0  0  0  0  0  0  0  0  0  0  0  0
    3.0230   -6.0960  -29.8450 H   0  0  0  0  0  0  0  0  0  0  0  0
   -1.3100   -2.8070  -25.2040 C   0  0  0  0  0  1  0  0  0  0  0  0
   -1.0110   -4.1200  -24.6980 N   0  0  0  0  0  0  0  0  0  0  0  0
   -0.2430   -5.0540  -25.3360 C   0  0  0  0  0  0  0  0  0  0  0  0
    0.1090   -4.9770  -26.6720 C   0  0  0  0  0  3  0  0  0  0  0  0
    1.0020   -5.9150  -27.1970 C   0  0  0  0  0  0  0  0  0  0  0  0
    1.4250   -6.9790  -26.4110 C   0  0  0  0  0  3  0  0  0  0  0  0
    0.9820   -7.0130  -25.1070 C   0  0  0  0  0  3  0  0  0  0  0  0
    0.1840   -6.0690  -24.5600 N   0  0  0  0  0  0  0  0  0  0  0  0
   -1.1640   -4.3270  -23.7190 H   0  0  0  0  0  0  0  0  0  0  0  0
    3.2620  -11.3810  -28.1350 C   0  0  0  0  0  2  0  0  0  0  0  0
    2.0040  -11.7010  -27.4870 N   0  0  0  0  0  0  0  0  0  0  0  0
    1.3290  -12.2630  -27.9790 H   0  0  0  0  0  0  0  0  0  0  0  0
    1.8540  -11.4370  -26.1340 C   0  0  0  0  0  0  0  0  0  0  0  0
    2.7250  -12.0390  -25.3050 N   0  0  0  0  0  0  0  0  0  0  0  0
    2.4270  -12.0300  -24.0090 C   0  0  0  0  0  3  0  0  0  0  0  0
    1.2980  -11.5600  -23.4760 N   0  0  0  0  0  0  0  0  0  0  0  0
    0.4360  -10.9240  -24.2950 C   0  0  0  0  0  0  0  0  0  0  0  0
   -0.7840  -10.4210  -23.8240 C   0  0  0  0  0  0  0  0  0  0  0  0
   -1.6550   -9.6750  -24.6340 C   0  0  0  0  0  3  0  0  0  0  0  0
   -1.3500   -9.4730  -25.9690 C   0  0  0  0  0  3  0  0  0  0  0  0
   -0.1930  -10.0430  -26.4890 C   0  0  0  0  0  3  0  0  0  0  0  0
    0.7080  -10.7700  -25.6640 C   0  0  0  0  0  0  0  0  0  0  0  0
   -1.2760  -10.7320  -22.4620 C   0  0  0  0  0  0  0  0  0  0  0  0
   -1.5990  -12.0390  -22.2170 N   0  0  0  0  0  0  0  0  0  0  0  0
   -1.4840   -9.8520  -21.6390 O   0  0  0  0  0  0  0  0  0  0  0  0
   -1.9800  -12.2790  -21.3130 H   0  0  0  0  0  0  0  0  0  0  0  0
   -1.4060  -12.7750  -22.8820 H   0  0  0  0  0  0  0  0  0  0  0  0
  1  2  1  0  0  0  0
  2  3  2  0  0  0  0
  4  3  1  0  0  0  0
  5  4  2  0  0  0  0
  6  1  2  0  0  0  0
  6  5  1  0  0  0  0
  7 15  1  0  0  0  0
  8  7  2  0  0  0  0
  9  7  1  0  0  0  0
  9  1  1  0  0  0  0
 10  9  1  0  0  0  0
 11 12  1  0  0  0  0
 12 19  1  0  0  0  0
 13 12  1  0  0  0  0
 13 18  1  0  0  0  0
 14 13  2  0  0  0  0
 15 14  1  0  0  0  0
 15 16  2  0  0  0  0
 16 17  1  0  0  0  0
 17 18  2  0  0  0  0
 20  5  1  0  0  0  0
 20 21  1  0  0  0  0
 21 23  1  0  0  0  0
 22 21  1  0  0  0  0
 23 32  2  0  0  0  0
 23 24  1  0  0  0  0
 24 25  2  0  0  0  0
 25 26  1  0  0  0  0
 27 28  1  0  0  0  0
 27 26  2  0  0  0  0
 28 33  1  0  0  0  0
 29 28  2  0  0  0  0
 30 29  1  0  0  0  0
 31 30  2  0  0  0  0
 31 32  1  0  0  0  0
 32 27  1  0  0  0  0
 33 34  1  0  0  0  0
 33 35  2  0  0  0  0
 34 36  1  0  0  0  0
 37 34  1  0  0  0  0
M  END
>  <minimizedAffinity>
-7.53224802

$$$$

 OpenBabel10152418393D

 37 40  0  0  0  0  0  0  0  0999 V2000
    4.0940   -9.3820  -27.3730 C   0  0  0  0  0  0  0  0  0  0  0  0
    4.2370  -10.1770  -28.5120 C   0  0  0  0  0  3  0  0  0  0  0  0
    3.8420  -11.5100  -28.4820 C   0  0  0  0  0  3  0  0  0  0  0  0
    3.2760  -12.0390  -27.3240 C   0  0  0  0  0  3  0  0  0  0  0  0
    3.0190  -11.2330  -26.2040 C   0  0  0  0  0  0  0  0  0  0  0  0
    3.4240   -9.8920  -26.2520 C   0  0  0  0  0  3  0  0  0  0  0  0
    4.1250   -6.8850  -27.7730 C   0  0  0  0  0  0  0  0  0  0  0  0
    4.8640   -5.9230  -27.9790 O   0  0  0  0  0  0  0  0  0  0  0  0
    4.6670   -8.1000  -27.4150 N   0  0  0  0  0  0  0  0  0  0  0  0
    5.6280   -8.0130  -27.1030 H   0  0  0  0  0  0  0  0  0  0  0  0
    0.7090   -2.7900  -27.5810 C   0  0  0  0  0  1  0  0  0  0  0  0
    0.0840   -4.0540  -27.8670 N   0  0  0  0  0  0  0  0  0  0  0  0
    0.7240   -5.2620  -27.8940 C   0  0  0  0  0  0  0  0  0  0  0  0
    2.1000   -5.4010  -27.9370 C   0  0  0  0  0  3  0  0  0  0  0  0
    2.6590   -6.6780  -27.8320 C   0  0  0  0  0  0  0  0  0  0  0  0
    1.8320   -7.7930  -27.8120 C   0  0  0  0  0  3  0  0  0  0  0  0
    0.4740   -7.5690  -27.8310 C   0  0  0  0  0  3  0  0  0  0  0  0
   -0.0850   -6.3380  -27.8490 N   0  0  0  0  0  0  0  0  0  0  0  0
   -0.9250   -4.1350  -27.8270 H   0  0  0  0  0  0  0  0  0  0  0  0
    2.3710  -11.8000  -24.9490 C   0  0  0  0  0  2  0  0  0  0  0  0
    0.9260  -11.6690  -24.9860 N   0  0  0  0  0  0  0  0  0  0  0  0
    0.4130  -12.1110  -25.7300 H   0  0  0  0  0  0  0  0  0  0  0  0
    0.2670  -11.1490  -23.8820 C   0  0  0  0  0  0  0  0  0  0  0  0
   -0.2780  -12.0390  -23.0350 N   0  0  0  0  0  0  0  0  0  0  0  0
   -1.1450  -11.5680  -22.1430 C   0  0  0  0  0  3  0  0  0  0  0  0
   -1.5880  -10.3110  -22.0800 N   0  0  0  0  0  0  0  0  0  0  0  0
   -1.0210   -9.4050  -22.9030 C   0  0  0  0  0  0  0  0  0  0  0  0
   -1.4420   -8.0690  -22.9210 C   0  0  0  0  0  0  0  0  0  0  0  0
   -0.8070   -7.0890  -23.7000 C   0  0  0  0  0  3  0  0  0  0  0  0
    0.2340   -7.4440  -24.5400 C   0  0  0  0  0  3  0  0  0  0  0  0
    0.6110   -8.7820  -24.6160 C   0  0  0  0  0  3  0  0  0  0  0  0
   -0.0080   -9.7710  -23.8040 C   0  0  0  0  0  0  0  0  0  0  0  0
   -2.6520   -7.6290  -22.1890 C   0  0  0  0  0  0  0  0  0  0  0  0
   -2.5000   -7.3980  -20.8490 N   0  0  0  0  0  0  0  0  0  0  0  0
   -3.7470   -7.5800  -22.7310 O   0  0  0  0  0  0  0  0  0  0  0  0
   -3.3140   -7.1400  -20.3100 H   0  0  0  0  0  0  0  0  0  0  0  0
   -1.5950   -7.4110  -20.4000 H   0  0  0  0  0  0  0  0  0  0  0  0
  1  6  1  0  0  0  0
  2  3  1  0  0  0  0
  2  1  2  0  0  0  0
  3  4  2  0  0  0  0
  4  5  1  0  0  0  0
  5 20  1  0  0  0  0
  6  5  2  0  0  0  0
  7  9  1  0  0  0  0
  8  7  2  0  0  0  0
  9  1  1  0  0  0  0
  9 10  1  0  0  0  0
 12 19  1  0  0  0  0
 12 11  1  0  0  0  0
 13 12  1  0  0  0  0
 13 18  1  0  0  0  0
 14 13  2  0  0  0  0
 14 15  1  0  0  0  0
 15 16  2  0  0  0  0
 15  7  1  0  0  0  0
 17 16  1  0  0  0  0
 18 17  2  0  0  0  0
 21 20  1  0  0  0  0
 21 23  1  0  0  0  0
 22 21  1  0  0  0  0
 23 32  2  0  0  0  0
 23 24  1  0  0  0  0
 24 25  2  0  0  0  0
 25 26  1  0  0  0  0
 27 26  2  0  0  0  0
 28 27  1  0  0  0  0
 28 33  1  0  0  0  0
 29 28  2  0  0  0  0
 30 29  1  0  0  0  0
 31 30  2  0  0  0  0
 31 32  1  0  0  0  0
 32 27  1  0  0  0  0
 33 34  1  0  0  0  0
 34 37  1  0  0  0  0
 34 36  1  0  0  0  0
 35 33  2  0  0  0  0
M  END
>  <minimizedAffinity>
-7.31234837

$$$$

 OpenBabel10152418393D

 37 40  0  0  0  0  0  0  0  0999 V2000
    2.5410   -8.4650  -26.5530 C   0  0  0  0  0  0  0  0  0  0  0  0
    2.7420   -8.1200  -25.2150 C   0  0  0  0  0  3  0  0  0  0  0  0
    2.2210   -8.9220  -24.2060 C   0  0  0  0  0  3  0  0  0  0  0  0
    1.5270  -10.0840  -24.5330 C   0  0  0  0  0  3  0  0  0  0  0  0
    1.4080  -10.5130  -25.8640 C   0  0  0  0  0  0  0  0  0  0  0  0
    1.9390   -9.6910  -26.8680 C   0  0  0  0  0  3  0  0  0  0  0  0
    2.2450   -6.5010  -28.1190 C   0  0  0  0  0  0  0  0  0  0  0  0
    2.7030   -5.9550  -29.1220 O   0  0  0  0  0  0  0  0  0  0  0  0
    2.9420   -7.5280  -27.5200 N   0  0  0  0  0  0  0  0  0  0  0  0
    3.9080   -7.5640  -27.8250 H   0  0  0  0  0  0  0  0  0  0  0  0
    0.2040   -5.6660  -23.2600 C   0  0  0  0  0  1  0  0  0  0  0  0
   -0.6160   -5.1600  -24.3290 N   0  0  0  0  0  0  0  0  0  0  0  0
   -0.3570   -5.3150  -25.6620 C   0  0  0  0  0  0  0  0  0  0  0  0
    0.8670   -5.7210  -26.1650 C   0  0  0  0  0  3  0  0  0  0  0  0
    0.9910   -5.9720  -27.5350 C   0  0  0  0  0  0  0  0  0  0  0  0
   -0.0700   -5.6920  -28.3860 C   0  0  0  0  0  3  0  0  0  0  0  0
   -1.2340   -5.2340  -27.8110 C   0  0  0  0  0  3  0  0  0  0  0  0
   -1.3990   -5.0650  -26.4790 N   0  0  0  0  0  0  0  0  0  0  0  0
   -1.5660   -4.8660  -24.1360 H   0  0  0  0  0  0  0  0  0  0  0  0
    0.6780  -11.7990  -26.2220 C   0  0  0  0  0  2  0  0  0  0  0  0
   -0.4490  -12.0390  -25.3410 N   0  0  0  0  0  0  0  0  0  0  0  0
   -0.5890  -12.9620  -24.9640 H   0  0  0  0  0  0  0  0  0  0  0  0
   -1.1620  -10.9570  -24.8480 C   0  0  0  0  0  0  0  0  0  0  0  0
   -1.3520   -9.9280  -25.6930 N   0  0  0  0  0  0  0  0  0  0  0  0
   -1.7730   -8.7830  -25.1630 C   0  0  0  0  0  3  0  0  0  0  0  0
   -1.9320   -8.5440  -23.8600 N   0  0  0  0  0  0  0  0  0  0  0  0
   -1.7780   -9.5790  -23.0090 C   0  0  0  0  0  0  0  0  0  0  0  0
   -1.9020   -9.4120  -21.6240 C   0  0  0  0  0  0  0  0  0  0  0  0
   -1.8390  -10.4890  -20.7250 C   0  0  0  0  0  3  0  0  0  0  0  0
   -1.5770  -11.7640  -21.1970 C   0  0  0  0  0  3  0  0  0  0  0  0
   -1.3530  -11.9460  -22.5580 C   0  0  0  0  0  3  0  0  0  0  0  0
   -1.4500  -10.8630  -23.4740 C   0  0  0  0  0  0  0  0  0  0  0  0
   -2.0110   -8.0670  -21.0130 C   0  0  0  0  0  0  0  0  0  0  0  0
   -2.3670   -7.0460  -21.8520 N   0  0  0  0  0  0  0  0  0  0  0  0
   -1.6940   -7.8640  -19.8500 O   0  0  0  0  0  0  0  0  0  0  0  0
   -2.4070   -6.1090  -21.4790 H   0  0  0  0  0  0  0  0  0  0  0  0
   -2.6550   -7.2100  -22.8070 H   0  0  0  0  0  0  0  0  0  0  0  0
  1  2  1  0  0  0  0
  2  3  2  0  0  0  0
  4  3  1  0  0  0  0
  5  4  2  0  0  0  0
  6  1  2  0  0  0  0
  6  5  1  0  0  0  0
  7 15  1  0  0  0  0
  7  9  1  0  0  0  0
  8  7  2  0  0  0  0
  9  1  1  0  0  0  0
 10  9  1  0  0  0  0
 12 19  1  0  0  0  0
 12 11  1  0  0  0  0
 13 12  1  0  0  0  0
 14 13  1  0  0  0  0
 15 14  2  0  0  0  0
 16 17  2  0  0  0  0
 16 15  1  0  0  0  0
 17 18  1  0  0  0  0
 18 13  2  0  0  0  0
 20  5  1  0  0  0  0
 20 21  1  0  0  0  0
 21 22  1  0  0  0  0
 21 23  1  0  0  0  0
 23 32  1  0  0  0  0
 24 25  1  0  0  0  0
 24 23  2  0  0  0  0
 25 26  2  0  0  0  0
 26 27  1  0  0  0  0
 27 28  1  0  0  0  0
 28 33  1  0  0  0  0
 28 29  2  0  0  0  0
 30 29  1  0  0  0  0
 31 30  2  0  0  0  0
 32 27  2  0  0  0  0
 32 31  1  0  0  0  0
 33 35  2  0  0  0  0
 34 36  1  0  0  0  0
 34 33  1  0  0  0  0
 37 34  1  0  0  0  0
M  END
>  <minimizedAffinity>
-6.54164982

$$$$
