
 OpenBabel10152418393D

 37 40  0  0  0  0  0  0  0  0999 V2000
    3.3310   -7.5580  -28.4070 C   0  0  0  0  0  0  0  0  0  0  0  0
    4.3490   -7.2280  -27.5090 C   0  0  0  0  0  3  0  0  0  0  0  0
    4.9670   -8.2270  -26.7660 C   0  0  0  0  0  3  0  0  0  0  0  0
    4.5910   -9.5570  -26.9420 C   0  0  0  0  0  3  0  0  0  0  0  0
    3.6510   -9.9260  -27.9170 C   0  0  0  0  0  0  0  0  0  0  0  0
    3.0380   -8.9050  -28.6570 C   0  0  0  0  0  3  0  0  0  0  0  0
    1.4930   -5.8300  -28.5920 C   0  0  0  0  0  0  0  0  0  0  0  0
    0.9040   -5.0900  -29.3790 O   0  0  0  0  0  0  0  0  0  0  0  0
    2.6320   -6.4910  -28.9970 N   0  0  0  0  0  0  0  0  0  0  0  0
    3.0230   -6.0960  -29.8450 H   0  0  0  0  0  0  0  0  0  0  0  0
   -1.3100   -2.8070  -25.2040 C   0  0  0  0  0  1  0  0  0  0  0  0
   -1.0110   -4.1200  -24.6980 N   0  0  0  0  0  0  0  0  0  0  0  0
   -0.2430   -5.0540  -25.3360 C   0  0  0  0  0  0  0  0  0  0  0  0
    0.1090   -4.9770  -26.6720 C   0  0  0  0  0  3  0  0  0  0  0  0
    1.0020   -5.9150  -27.1970 C   0  0  0  0  0  0  0  0  0  0  0  0
    1.4250   -6.9790  -26.4110 C   0  0  0  0  0  3  0  0  0  0  0  0
    0.9820   -7.0130  -25.1070 C   0  0  0  0  0  3  0  0  0  0  0  0
    0.1840   -6.0690  -24.5600 N   0  0  0  0  0  0  0  0  0  0  0  0
   -1.1640   -4.3270  -23.7190 H   0  0  0  0  0  0  0  0  0  0  0  0
    3.2620  -11.3810  -28.1350 C   0  0  0  0  0  2  0  0  0  0  0  0
    2.0040  -11.7010  -27.4870 N   0  0  0  0  0  0  0  0  0  0  0  0
    1.3290  -12.2630  -27.9790 H   0  0  0  0  0  0  0  0  0  0  0  0
    1.8540  -11.4370  -26.1340 C   0  0  0  0  0  0  0  0  0  0  0  0
    2.7250  -12.0390  -25.3050 N   0  0  0  0  0  0  0  0  0  0  0  0
    2.4270  -12.0300  -24.0090 C   0  0  0  0  0  3  0  0  0  0  0  0
    1.2980  -11.5600  -23.4760 N   0  0  0  0  0  0  0  0  0  0  0  0
    0.4360  -10.9240  -24.2950 C   0  0  0  0  0  0  0  0  0  0  0  0
   -0.7840  -10.4210  -23.8240 C   0  0  0  0  0  0  0  0  0  0  0  0
   -1.6550   -9.6750  -24.6340 C   0  0  0  0  0  3  0  0  0  0  0  0
   -1.3500   -9.4730  -25.9690 C   0  0  0  0  0  3  0  0  0  0  0  0
   -0.1930  -10.0430  -26.4890 C   0  0  0  0  0  3  0  0  0  0  0  0
    0.7080  -10.7700  -25.6640 C   0  0  0  0  0  0  0  0  0  0  0  0
   -1.2760  -10.7320  -22.4620 C   0  0  0  0  0  0  0  0  0  0  0  0
   -1.5990  -12.0390  -22.2170 N   0  0  0  0  0  0  0  0  0  0  0  0
   -1.4840   -9.8520  -21.6390 O   0  0  0  0  0  0  0  0  0  0  0  0
   -1.9800  -12.2790  -21.3130 H   0  0  0  0  0  0  0  0  0  0  0  0
   -1.4060  -12.7750  -22.8820 H   0  0  0  0  0  0  0  0  0  0  0  0
  1  2  1  0  0  0  0
  2  3  2  0  0  0  0
  4  3  1  0  0  0  0
  5  4  2  0  0  0  0
  6  1  2  0  0  0  0
  6  5  1  0  0  0  0
  7 15  1  0  0  0  0
  8  7  2  0  0  0  0
  9  7  1  0  0  0  0
  9  1  1  0  0  0  0
 10  9  1  0  0  0  0
 11 12  1  0  0  0  0
 12 19  1  0  0  0  0
 13 12  1  0  0  0  0
 13 18  1  0  0  0  0
 14 13  2  0  0  0  0
 15 14  1  0  0  0  0
 15 16  2  0  0  0  0
 16 17  1  0  0  0  0
 17 18  2  0  0  0  0
 20  5  1  0  0  0  0
 20 21  1  0  0  0  0
 21 23  1  0  0  0  0
 22 21  1  0  0  0  0
 23 32  2  0  0  0  0
 23 24  1  0  0  0  0
 24 25  2  0  0  0  0
 25 26  1  0  0  0  0
 27 28  1  0  0  0  0
 27 26  2  0  0  0  0
 28 33  1  0  0  0  0
 29 28  2  0  0  0  0
 30 29  1  0  0  0  0
 31 30  2  0  0  0  0
 31 32  1  0  0  0  0
 32 27  1  0  0  0  0
 33 34  1  0  0  0  0
 33 35  2  0  0  0  0
 34 36  1  0  0  0  0
 37 34  1  0  0  0  0
M  END
>  <minimizedAffinity>
-7.53224802

$$$$
