
 OpenBabel10152418393D

 37 40  0  0  0  0  0  0  0  0999 V2000
    0.8920  -11.4720  -25.7370 C   0  0  0  0  0  0  0  0  0  0  0  0
    1.1040  -11.8660  -24.4140 C   0  0  0  0  0  3  0  0  0  0  0  0
    2.4000  -12.0390  -23.9410 C   0  0  0  0  0  3  0  0  0  0  0  0
    3.4830  -11.7880  -24.7800 C   0  0  0  0  0  3  0  0  0  0  0  0
    3.3000  -11.2850  -26.0770 C   0  0  0  0  0  0  0  0  0  0  0  0
    1.9860  -11.1170  -26.5370 C   0  0  0  0  0  3  0  0  0  0  0  0
   -1.5810  -10.9440  -25.6550 C   0  0  0  0  0  0  0  0  0  0  0  0
   -2.6800  -11.2780  -26.0930 O   0  0  0  0  0  0  0  0  0  0  0  0
   -0.4350  -11.4820  -26.2000 N   0  0  0  0  0  0  0  0  0  0  0  0
   -0.6070  -11.9190  -27.0990 H   0  0  0  0  0  0  0  0  0  0  0  0
   -2.0700  -10.6500  -20.3490 C   0  0  0  0  0  1  0  0  0  0  0  0
   -1.6730   -9.4120  -20.9650 N   0  0  0  0  0  0  0  0  0  0  0  0
   -1.5550   -9.2030  -22.3110 C   0  0  0  0  0  0  0  0  0  0  0  0
   -1.5170  -10.2220  -23.2460 C   0  0  0  0  0  3  0  0  0  0  0  0
   -1.5230   -9.9000  -24.6060 C   0  0  0  0  0  0  0  0  0  0  0  0
   -1.4410   -8.5710  -25.0000 C   0  0  0  0  0  3  0  0  0  0  0  0
   -1.4250   -7.6190  -24.0040 C   0  0  0  0  0  3  0  0  0  0  0  0
   -1.5020   -7.9100  -22.6860 N   0  0  0  0  0  0  0  0  0  0  0  0
   -1.6960   -8.5540  -20.4260 H   0  0  0  0  0  0  0  0  0  0  0  0
    4.4830  -10.9800  -26.9860 C   0  0  0  0  0  2  0  0  0  0  0  0
    4.7270   -9.5530  -27.0840 N   0  0  0  0  0  0  0  0  0  0  0  0
    5.5800   -9.1750  -26.7070 H   0  0  0  0  0  0  0  0  0  0  0  0
    3.9090   -8.7820  -27.8960 C   0  0  0  0  0  0  0  0  0  0  0  0
    4.2490   -8.7100  -29.1950 N   0  0  0  0  0  0  0  0  0  0  0  0
    3.6590   -7.7640  -29.9200 C   0  0  0  0  0  3  0  0  0  0  0  0
    2.8340   -6.8270  -29.4500 N   0  0  0  0  0  0  0  0  0  0  0  0
    2.4610   -6.9130  -28.1570 C   0  0  0  0  0  0  0  0  0  0  0  0
    1.6180   -5.9580  -27.5730 C   0  0  0  0  0  0  0  0  0  0  0  0
    1.1410   -6.0760  -26.2580 C   0  0  0  0  0  3  0  0  0  0  0  0
    1.5590   -7.1310  -25.4660 C   0  0  0  0  0  3  0  0  0  0  0  0
    2.4720   -8.0430  -25.9870 C   0  0  0  0  0  3  0  0  0  0  0  0
    2.9310   -7.9450  -27.3280 C   0  0  0  0  0  0  0  0  0  0  0  0
    1.2560   -4.7090  -28.2820 C   0  0  0  0  0  0  0  0  0  0  0  0
    0.3220   -4.8230  -29.2760 N   0  0  0  0  0  0  0  0  0  0  0  0
    1.8390   -3.6570  -28.0650 O   0  0  0  0  0  0  0  0  0  0  0  0
    0.0850   -4.0000  -29.8100 H   0  0  0  0  0  0  0  0  0  0  0  0
   -0.1820   -5.6830  -29.4440 H   0  0  0  0  0  0  0  0  0  0  0  0
  1  2  1  0  0  0  0
  2  3  2  0  0  0  0
  4  3  1  0  0  0  0
  5  4  2  0  0  0  0
  6  5  1  0  0  0  0
  6  1  2  0  0  0  0
  7 15  1  0  0  0  0
  8  7  2  0  0  0  0
  9  1  1  0  0  0  0
  9  7  1  0  0  0  0
 10  9  1  0  0  0  0
 12 19  1  0  0  0  0
 12 11  1  0  0  0  0
 13 12  1  0  0  0  0
 14 13  2  0  0  0  0
 15 14  1  0  0  0  0
 16 15  2  0  0  0  0
 16 17  1  0  0  0  0
 17 18  2  0  0  0  0
 18 13  1  0  0  0  0
 20  5  1  0  0  0  0
 21 20  1  0  0  0  0
 21 22  1  0  0  0  0
 23 32  1  0  0  0  0
 23 21  1  0  0  0  0
 24 23  2  0  0  0  0
 25 26  2  0  0  0  0
 25 24  1  0  0  0  0
 26 27  1  0  0  0  0
 27 28  2  0  0  0  0
 27 32  1  0  0  0  0
 28 29  1  0  0  0  0
 29 30  2  0  0  0  0
 31 30  1  0  0  0  0
 32 31  2  0  0  0  0
 33 35  2  0  0  0  0
 33 28  1  0  0  0  0
 34 33  1  0  0  0  0
 36 34  1  0  0  0  0
 37 34  1  0  0  0  0
M  END
>  <minimizedAffinity>
-8.88092804

$$$$
