
 OpenBabel10152418393D

 37 40  0  0  0  0  0  0  0  0999 V2000
    2.5410   -8.4650  -26.5530 C   0  0  0  0  0  0  0  0  0  0  0  0
    2.7420   -8.1200  -25.2150 C   0  0  0  0  0  3  0  0  0  0  0  0
    2.2210   -8.9220  -24.2060 C   0  0  0  0  0  3  0  0  0  0  0  0
    1.5270  -10.0840  -24.5330 C   0  0  0  0  0  3  0  0  0  0  0  0
    1.4080  -10.5130  -25.8640 C   0  0  0  0  0  0  0  0  0  0  0  0
    1.9390   -9.6910  -26.8680 C   0  0  0  0  0  3  0  0  0  0  0  0
    2.2450   -6.5010  -28.1190 C   0  0  0  0  0  0  0  0  0  0  0  0
    2.7030   -5.9550  -29.1220 O   0  0  0  0  0  0  0  0  0  0  0  0
    2.9420   -7.5280  -27.5200 N   0  0  0  0  0  0  0  0  0  0  0  0
    3.9080   -7.5640  -27.8250 H   0  0  0  0  0  0  0  0  0  0  0  0
    0.2040   -5.6660  -23.2600 C   0  0  0  0  0  1  0  0  0  0  0  0
   -0.6160   -5.1600  -24.3290 N   0  0  0  0  0  0  0  0  0  0  0  0
   -0.3570   -5.3150  -25.6620 C   0  0  0  0  0  0  0  0  0  0  0  0
    0.8670   -5.7210  -26.1650 C   0  0  0  0  0  3  0  0  0  0  0  0
    0.9910   -5.9720  -27.5350 C   0  0  0  0  0  0  0  0  0  0  0  0
   -0.0700   -5.6920  -28.3860 C   0  0  0  0  0  3  0  0  0  0  0  0
   -1.2340   -5.2340  -27.8110 C   0  0  0  0  0  3  0  0  0  0  0  0
   -1.3990   -5.0650  -26.4790 N   0  0  0  0  0  0  0  0  0  0  0  0
   -1.5660   -4.8660  -24.1360 H   0  0  0  0  0  0  0  0  0  0  0  0
    0.6780  -11.7990  -26.2220 C   0  0  0  0  0  2  0  0  0  0  0  0
   -0.4490  -12.0390  -25.3410 N   0  0  0  0  0  0  0  0  0  0  0  0
   -0.5890  -12.9620  -24.9640 H   0  0  0  0  0  0  0  0  0  0  0  0
   -1.1620  -10.9570  -24.8480 C   0  0  0  0  0  0  0  0  0  0  0  0
   -1.3520   -9.9280  -25.6930 N   0  0  0  0  0  0  0  0  0  0  0  0
   -1.7730   -8.7830  -25.1630 C   0  0  0  0  0  3  0  0  0  0  0  0
   -1.9320   -8.5440  -23.8600 N   0  0  0  0  0  0  0  0  0  0  0  0
   -1.7780   -9.5790  -23.0090 C   0  0  0  0  0  0  0  0  0  0  0  0
   -1.9020   -9.4120  -21.6240 C   0  0  0  0  0  0  0  0  0  0  0  0
   -1.8390  -10.4890  -20.7250 C   0  0  0  0  0  3  0  0  0  0  0  0
   -1.5770  -11.7640  -21.1970 C   0  0  0  0  0  3  0  0  0  0  0  0
   -1.3530  -11.9460  -22.5580 C   0  0  0  0  0  3  0  0  0  0  0  0
   -1.4500  -10.8630  -23.4740 C   0  0  0  0  0  0  0  0  0  0  0  0
   -2.0110   -8.0670  -21.0130 C   0  0  0  0  0  0  0  0  0  0  0  0
   -2.3670   -7.0460  -21.8520 N   0  0  0  0  0  0  0  0  0  0  0  0
   -1.6940   -7.8640  -19.8500 O   0  0  0  0  0  0  0  0  0  0  0  0
   -2.4070   -6.1090  -21.4790 H   0  0  0  0  0  0  0  0  0  0  0  0
   -2.6550   -7.2100  -22.8070 H   0  0  0  0  0  0  0  0  0  0  0  0
  1  2  1  0  0  0  0
  2  3  2  0  0  0  0
  4  3  1  0  0  0  0
  5  4  2  0  0  0  0
  6  1  2  0  0  0  0
  6  5  1  0  0  0  0
  7 15  1  0  0  0  0
  7  9  1  0  0  0  0
  8  7  2  0  0  0  0
  9  1  1  0  0  0  0
 10  9  1  0  0  0  0
 12 19  1  0  0  0  0
 12 11  1  0  0  0  0
 13 12  1  0  0  0  0
 14 13  1  0  0  0  0
 15 14  2  0  0  0  0
 16 17  2  0  0  0  0
 16 15  1  0  0  0  0
 17 18  1  0  0  0  0
 18 13  2  0  0  0  0
 20  5  1  0  0  0  0
 20 21  1  0  0  0  0
 21 22  1  0  0  0  0
 21 23  1  0  0  0  0
 23 32  1  0  0  0  0
 24 25  1  0  0  0  0
 24 23  2  0  0  0  0
 25 26  2  0  0  0  0
 26 27  1  0  0  0  0
 27 28  1  0  0  0  0
 28 33  1  0  0  0  0
 28 29  2  0  0  0  0
 30 29  1  0  0  0  0
 31 30  2  0  0  0  0
 32 27  2  0  0  0  0
 32 31  1  0  0  0  0
 33 35  2  0  0  0  0
 34 36  1  0  0  0  0
 34 33  1  0  0  0  0
 37 34  1  0  0  0  0
M  END
>  <minimizedAffinity>
-6.54164982

$$$$
