REMARK  Name = 
REMARK  7 active torsions:
REMARK  status: ('A' for Active; 'I' for Inactive)
REMARK    1  A    between atoms: C_1  and  N_2
REMARK    2  A    between atoms: C_5  and  C_6
REMARK    3  A    between atoms: N_8  and  C_9
REMARK    4  A    between atoms: C_13  and  C_14
REMARK    5  A    between atoms: C_14  and  N_15
REMARK    6  A    between atoms: N_15  and  C_16
REMARK    7  A    between atoms: C_21  and  C_22
REMARK                            x       y       z     vdW  Elec       q    Type
REMARK                         _______ _______ _______ _____ _____    ______ ____
ROOT
ATOM      1  C   UNL     1      -3.149   0.173  -0.951  0.00  0.00    +0.034 A 
ATOM      2  C   UNL     1      -3.189  -1.204  -1.181  0.00  0.00    +0.023 A 
ATOM      3  C   UNL     1      -2.664  -2.080  -0.238  0.00  0.00    +0.002 A 
ATOM      4  C   UNL     1      -2.128  -1.583   0.948  0.00  0.00    +0.005 A 
ATOM      5  C   UNL     1      -2.177  -0.214   1.253  0.00  0.00    -0.029 A 
ATOM      6  C   UNL     1      -2.710   0.655   0.290  0.00  0.00    +0.028 A 
ENDROOT
BRANCH   1   9
ATOM      7  C   UNL     1      -3.171   2.301  -2.318  0.00  0.00    +0.248 C 
ATOM      8  O   UNL     1      -3.815   2.937  -3.151  0.00  0.00    -0.270 OA
ATOM      9  N   UNL     1      -3.537   1.008  -2.012  0.00  0.00    -0.281 N 
ATOM     10  H   UNL     1      -4.163   0.613  -2.705  0.00  0.00    +0.155 HD
BRANCH   7  15
ATOM     11  C   UNL     1       1.599   0.719  -0.524  0.00  0.00    +0.127 C 
ATOM     12  N   UNL     1       1.438   2.148  -0.561  0.00  0.00    -0.332 N 
ATOM     13  C   UNL     1       0.288   2.803  -0.905  0.00  0.00    +0.119 A 
ATOM     14  C   UNL     1      -0.781   2.196  -1.540  0.00  0.00    +0.056 A 
ATOM     15  C   UNL     1      -1.960   2.922  -1.733  0.00  0.00    +0.042 A 
ATOM     16  C   UNL     1      -2.002   4.270  -1.402  0.00  0.00    +0.033 A 
ATOM     17  C   UNL     1      -0.874   4.812  -0.827  0.00  0.00    +0.113 A 
ATOM     18  N   UNL     1       0.246   4.104  -0.557  0.00  0.00    -0.240 NA
ATOM     19  H   UNL     1       2.113   2.741  -0.094  0.00  0.00    +0.147 HD
ENDBRANCH   7  15
ENDBRANCH   1   9
BRANCH   5  20
ATOM     20  C   UNL     1      -1.622   0.329   2.562  0.00  0.00    +0.138 C 
BRANCH  20  21
ATOM     21  N   UNL     1      -2.392  -0.132   3.702  0.00  0.00    -0.324 N 
ATOM     22  H   UNL     1      -3.152   0.434   4.041  0.00  0.00    +0.148 HD
BRANCH  21  23
ATOM     23  C   UNL     1      -2.226  -1.435   4.146  0.00  0.00    +0.130 A 
ATOM     24  N   UNL     1      -0.969  -1.912   4.151  0.00  0.00    -0.220 NA
ATOM     25  C   UNL     1      -0.824  -3.226   4.295  0.00  0.00    +0.223 A 
ATOM     26  N   UNL     1      -1.817  -4.116   4.340  0.00  0.00    -0.235 NA
ATOM     27  C   UNL     1      -3.080  -3.644   4.371  0.00  0.00    +0.088 A 
ATOM     28  C   UNL     1      -4.183  -4.507   4.393  0.00  0.00    +0.063 A 
ATOM     29  C   UNL     1      -5.502  -4.043   4.519  0.00  0.00    +0.015 A 
ATOM     30  C   UNL     1      -5.752  -2.682   4.556  0.00  0.00    +0.002 A 
ATOM     31  C   UNL     1      -4.684  -1.798   4.438  0.00  0.00    +0.013 A 
ATOM     32  C   UNL     1      -3.345  -2.265   4.344  0.00  0.00    +0.041 A 
BRANCH  28  33
ATOM     33  C   UNL     1      -4.029  -5.966   4.186  0.00  0.00    +0.244 C 
ATOM     34  N   UNL     1      -3.239  -6.350   3.137  0.00  0.00    -0.325 N 
ATOM     35  O   UNL     1      -4.660  -6.777   4.848  0.00  0.00    -0.270 OA
ATOM     36  H   UNL     1      -3.148  -7.336   2.939  0.00  0.00    +0.145 HD
ATOM     37  H   UNL     1      -2.695  -5.687   2.602  0.00  0.00    +0.145 HD
ENDBRANCH  28  33
ENDBRANCH  21  23
ENDBRANCH  20  21
ENDBRANCH   5  20
TORSDOF 6
