
 OpenBabel10152419143D

 37 40  0  0  1  0  0  0  0  0999 V2000
    9.9480  -11.5750   13.9090 C   0  0  0  0  0  0  0  0  0  0  0  0
   10.7310  -10.4220   13.9280 C   0  0  0  0  0  3  0  0  0  0  0  0
   10.1230   -9.1760   13.8050 C   0  0  0  0  0  3  0  0  0  0  0  0
    8.7350   -9.0860   13.6860 C   0  0  0  0  0  3  0  0  0  0  0  0
    7.9190  -10.2230   13.7800 C   0  0  0  0  0  0  0  0  0  0  0  0
    8.5490  -11.4660   13.9300 C   0  0  0  0  0  3  0  0  0  0  0  0
   10.1030  -14.0670   13.5490 C   0  0  0  0  0  0  0  0  0  0  0  0
   10.7860  -15.0540   13.8210 O   0  0  0  0  0  0  0  0  0  0  0  0
   10.6130  -12.8120   13.8240 N   0  0  0  0  0  0  0  0  0  0  0  0
   11.6190  -12.8120   13.9280 H   0  0  0  0  0  0  0  0  0  0  0  0
    6.7230  -14.6020   12.2870 C   0  0  1  0  0  3  0  0  0  0  0  0
    7.5260  -14.2290   13.3870 C   0  0  0  0  0  2  0  0  0  0  0  0
    8.8210  -14.1920   12.9030 C   0  0  1  0  0  3  0  0  0  0  0  0
    8.6780  -14.2740   11.5460 N   0  0  0  0  0  0  0  0  0  0  0  0
    7.4320  -14.5970   11.1510 N   0  0  0  0  0  2  0  0  0  0  0  0
    9.4110  -14.1980   10.8480 H   0  0  0  0  0  0  0  0  0  0  0  0
    4.7400  -15.0230   13.7660 C   0  0  0  0  0  1  0  0  0  0  0  0
    5.2800  -15.0240   12.3380 C   0  0  0  0  0  3  0  0  0  0  0  0
    4.3830  -14.1990   11.4130 C   0  0  0  0  0  1  0  0  0  0  0  0
    6.4060  -10.1410   13.6340 C   0  0  0  0  0  2  0  0  0  0  0  0
    5.8970  -11.0780   12.6490 N   0  0  0  0  0  0  0  0  0  0  0  0
    5.6120  -11.9940   12.9510 H   0  0  0  0  0  0  0  0  0  0  0  0
    5.5120  -10.5880   11.4100 C   0  0  0  0  0  0  0  0  0  0  0  0
    4.3150  -10.9920   10.9490 N   0  0  0  0  0  0  0  0  0  0  0  0
    4.0790  -10.8160    9.6510 C   0  0  0  0  0  3  0  0  0  0  0  0
    4.9640  -10.3680    8.7580 N   0  0  0  0  0  0  0  0  0  0  0  0
    6.1480   -9.9240    9.2230 C   0  0  0  0  0  0  0  0  0  0  0  0
    7.1530   -9.4750    8.3600 C   0  0  0  0  0  0  0  0  0  0  0  0
    8.3550   -8.9110    8.8110 C   0  0  0  0  0  3  0  0  0  0  0  0
    8.6090   -8.8460   10.1700 C   0  0  0  0  0  3  0  0  0  0  0  0
    7.6810   -9.3870   11.0540 C   0  0  0  0  0  3  0  0  0  0  0  0
    6.4520   -9.9350   10.5920 C   0  0  0  0  0  0  0  0  0  0  0  0
    7.0460   -9.7050    6.9080 C   0  0  0  0  0  0  0  0  0  0  0  0
    6.1470   -8.9070    6.2540 N   0  0  0  0  0  0  0  0  0  0  0  0
    7.6310  -10.6270    6.3560 O   0  0  0  0  0  0  0  0  0  0  0  0
    6.0040   -9.0530    5.2650 H   0  0  0  0  0  0  0  0  0  0  0  0
    5.6460   -8.1600    6.7160 H   0  0  0  0  0  0  0  0  0  0  0  0
  1  2  2  0  0  0  0
  1  6  1  0  0  0  0
  3  2  1  0  0  0  0
  4  5  1  0  0  0  0
  4  3  2  0  0  0  0
  5  6  2  0  0  0  0
  7  8  2  0  0  0  0
  7  9  1  0  0  0  0
  9  1  1  0  0  0  0
  9 10  1  0  0  0  0
 11 18  1  1  0  0  0
 11 12  1  0  0  0  0
 13 12  1  0  0  0  0
 13  7  1  6  0  0  0
 14 13  1  0  0  0  0
 15 14  1  0  0  0  0
 15 11  1  0  0  0  0
 16 14  1  0  0  0  0
 18 17  1  0  0  0  0
 19 18  1  0  0  0  0
 20  5  1  0  0  0  0
 21 22  1  0  0  0  0
 21 20  1  0  0  0  0
 23 21  1  0  0  0  0
 24 23  1  0  0  0  0
 25 24  2  0  0  0  0
 26 27  2  0  0  0  0
 26 25  1  0  0  0  0
 27 32  1  0  0  0  0
 28 29  2  0  0  0  0
 28 27  1  0  0  0  0
 29 30  1  0  0  0  0
 30 31  2  0  0  0  0
 32 31  1  0  0  0  0
 32 23  2  0  0  0  0
 33 28  1  0  0  0  0
 34 37  1  0  0  0  0
 34 33  1  0  0  0  0
 35 33  2  0  0  0  0
 36 34  1  0  0  0  0
M  END
>  <minimizedAffinity>
8.54594326

$$$$

 OpenBabel10152419143D

 37 40  0  0  1  0  0  0  0  0999 V2000
    7.3620   -9.8340   12.8390 C   0  0  0  0  0  0  0  0  0  0  0  0
    6.5010   -9.7230   13.9300 C   0  0  0  0  0  3  0  0  0  0  0  0
    5.1590  -10.0610   13.7860 C   0  0  0  0  0  3  0  0  0  0  0  0
    4.6870  -10.5300   12.5590 C   0  0  0  0  0  3  0  0  0  0  0  0
    5.5560  -10.7590   11.4810 C   0  0  0  0  0  0  0  0  0  0  0  0
    6.9080  -10.4360   11.6560 C   0  0  0  0  0  3  0  0  0  0  0  0
    9.5800   -8.9850   11.9900 C   0  0  0  0  0  0  0  0  0  0  0  0
   10.7510   -8.8040   12.3240 O   0  0  0  0  0  0  0  0  0  0  0  0
    8.6510   -9.2860   12.9680 N   0  0  0  0  0  0  0  0  0  0  0  0
    8.9560   -9.0170   13.8950 H   0  0  0  0  0  0  0  0  0  0  0  0
    8.1360   -8.8410    8.6440 C   0  0  1  0  0  3  0  0  0  0  0  0
    7.9090   -8.7220   10.0330 C   0  0  0  0  0  2  0  0  0  0  0  0
    9.1550   -8.8360   10.6220 C   0  0  1  0  0  3  0  0  0  0  0  0
   10.0320   -8.7430    9.5770 N   0  0  0  0  0  0  0  0  0  0  0  0
    9.4460   -8.8200    8.3680 N   0  0  0  0  0  2  0  0  0  0  0  0
   11.0460   -8.7060    9.6310 H   0  0  0  0  0  0  0  0  0  0  0  0
    7.1610  -10.4260    6.9600 C   0  0  0  0  0  1  0  0  0  0  0  0
    7.0880   -9.0340    7.5830 C   0  0  0  0  0  3  0  0  0  0  0  0
    5.6720   -8.7310    8.0780 C   0  0  0  0  0  1  0  0  0  0  0  0
    5.0510  -11.2530   10.1330 C   0  0  0  0  0  2  0  0  0  0  0  0
    5.7570  -12.4400    9.6830 N   0  0  0  0  0  0  0  0  0  0  0  0
    5.8920  -12.5810    8.6970 H   0  0  0  0  0  0  0  0  0  0  0  0
    6.4990  -13.1560   10.6110 C   0  0  0  0  0  0  0  0  0  0  0  0
    5.8080  -13.7840   11.5790 N   0  0  0  0  0  0  0  0  0  0  0  0
    6.4950  -14.1820   12.6470 C   0  0  0  0  0  3  0  0  0  0  0  0
    7.7830  -13.9220   12.8790 N   0  0  0  0  0  0  0  0  0  0  0  0
    8.4870  -13.3310   11.8930 C   0  0  0  0  0  0  0  0  0  0  0  0
    9.8310  -12.9820   12.0600 C   0  0  0  0  0  0  0  0  0  0  0  0
   10.6220  -12.4610   11.0260 C   0  0  0  0  0  3  0  0  0  0  0  0
   10.0480  -12.2100    9.7910 C   0  0  0  0  0  3  0  0  0  0  0  0
    8.6860  -12.4390    9.6240 C   0  0  0  0  0  3  0  0  0  0  0  0
    7.8950  -12.9910   10.6690 C   0  0  0  0  0  0  0  0  0  0  0  0
   10.4510  -13.0220   13.3970 C   0  0  0  0  0  0  0  0  0  0  0  0
   10.7660  -11.8010   13.9310 N   0  0  0  0  0  0  0  0  0  0  0  0
   10.7710  -14.0760   13.9300 O   0  0  0  0  0  0  0  0  0  0  0  0
   11.2320  -11.7740   14.8270 H   0  0  0  0  0  0  0  0  0  0  0  0
   10.5230  -10.9310   13.4790 H   0  0  0  0  0  0  0  0  0  0  0  0
  1  9  1  0  0  0  0
  1  2  1  0  0  0  0
  3  2  2  0  0  0  0
  4  3  1  0  0  0  0
  5  6  1  0  0  0  0
  5  4  2  0  0  0  0
  6  1  2  0  0  0  0
  7  8  2  0  0  0  0
  7  9  1  0  0  0  0
  9 10  1  0  0  0  0
 11 18  1  1  0  0  0
 11 12  1  0  0  0  0
 12 13  1  0  0  0  0
 13  7  1  1  0  0  0
 14 16  1  0  0  0  0
 14 13  1  0  0  0  0
 15 11  1  0  0  0  0
 15 14  1  0  0  0  0
 17 18  1  0  0  0  0
 18 19  1  0  0  0  0
 20  5  1  0  0  0  0
 21 20  1  0  0  0  0
 21 23  1  0  0  0  0
 22 21  1  0  0  0  0
 23 32  2  0  0  0  0
 23 24  1  0  0  0  0
 24 25  2  0  0  0  0
 25 26  1  0  0  0  0
 27 28  1  0  0  0  0
 27 26  2  0  0  0  0
 28 33  1  0  0  0  0
 29 28  2  0  0  0  0
 30 29  1  0  0  0  0
 31 30  2  0  0  0  0
 31 32  1  0  0  0  0
 32 27  1  0  0  0  0
 33 35  2  0  0  0  0
 33 34  1  0  0  0  0
 34 36  1  0  0  0  0
 37 34  1  0  0  0  0
M  END
>  <minimizedAffinity>
9.49824619

$$$$

 OpenBabel10152419143D

 37 41  0  0  1  0  0  0  0  0999 V2000
    8.3650   -9.9640    9.5740 C   0  0  0  0  0  0  0  0  0  0  0  0
    8.9800   -8.7750    9.9610 C   0  0  0  0  0  3  0  0  0  0  0  0
   10.1410   -8.8190   10.7280 C   0  0  0  0  0  3  0  0  0  0  0  0
   10.6940  -10.0510   11.0850 C   0  0  0  0  0  3  0  0  0  0  0  0
   10.1580  -11.2570   10.6100 C   0  0  0  0  0  0  0  0  0  0  0  0
    9.0030  -11.1890    9.8190 C   0  0  0  0  0  3  0  0  0  0  0  0
    6.2160  -10.8840    8.6250 C   0  0  0  0  0  0  0  0  0  0  0  0
    5.2950  -10.6190    7.8530 O   0  0  0  0  0  0  0  0  0  0  0  0
    7.0900   -9.8760    8.9860 N   0  0  0  0  0  0  0  0  0  0  0  0
    6.7050   -8.9520    8.8350 H   0  0  0  0  0  0  0  0  0  0  0  0
    6.3210  -14.0660   10.4040 C   0  0  1  0  0  3  0  0  0  0  0  0
    5.5200  -12.9960    9.9470 C   0  0  0  0  0  2  0  0  0  0  0  0
    6.3650  -12.1980    9.1970 C   0  0  1  0  0  3  0  0  0  0  0  0
    7.4930  -12.9540    9.0370 N   0  0  0  0  0  0  0  0  0  0  0  0
    7.5230  -14.0520    9.8160 N   0  0  0  0  0  2  0  0  0  0  0  0
    8.3060  -12.7280    8.4730 H   0  0  0  0  0  0  0  0  0  0  0  0
    6.9390  -15.0730   12.6180 C   0  0  0  0  0  2  0  0  0  0  0  0
    5.9470  -15.0720   11.4580 C   0  0  1  0  0  3  0  0  0  0  0  0
    4.5130  -14.9020   11.9650 C   0  0  0  0  0  1  0  0  0  0  0  0
   10.7400  -12.6060   11.0070 C   0  0  0  0  0  2  0  0  0  0  0  0
   10.6230  -12.8580   12.4310 N   0  0  0  0  0  0  0  0  0  0  0  0
   11.4590  -12.8950   12.9890 H   0  0  0  0  0  0  0  0  0  0  0  0
    9.3790  -12.7090   13.0270 C   0  0  2  0  0  3  0  0  0  0  0  0
    8.5800  -13.7910   13.0280 N   0  0  0  0  0  0  0  0  0  0  0  0
    7.2890  -13.5850   13.2790 C   0  0  0  0  0  0  0  0  0  0  0  0
    6.7120  -12.3910   13.4290 N   0  0  0  0  0  2  0  0  0  0  0  0
    7.5150  -11.3110   13.4710 C   0  0  0  0  0  0  0  0  0  0  0  0
    6.9980  -10.0160   13.5840 C   0  0  0  0  0  0  0  0  0  0  0  0
    7.8050   -8.8790   13.7330 C   0  0  0  0  0  3  0  0  0  0  0  0
    9.1820   -9.0130   13.7040 C   0  0  0  0  0  3  0  0  0  0  0  0
    9.7310  -10.2710   13.4800 C   0  0  0  0  0  3  0  0  0  0  0  0
    8.9080  -11.4250   13.3540 C   0  0  0  0  0  0  0  0  0  0  0  0
    5.5550   -9.7720   13.4100 C   0  0  0  0  0  0  0  0  0  0  0  0
    4.8920  -10.7010   12.6530 N   0  0  0  0  0  0  0  0  0  0  0  0
    5.0200   -8.7480   13.8120 O   0  0  0  0  0  0  0  0  0  0  0  0
    3.9100  -10.5570   12.4670 H   0  0  0  0  0  0  0  0  0  0  0  0
    5.3410  -11.5350   12.3010 H   0  0  0  0  0  0  0  0  0  0  0  0
  1  6  2  0  0  0  0
  1  2  1  0  0  0  0
  2  3  2  0  0  0  0
  3  4  1  0  0  0  0
  5 20  1  0  0  0  0
  5  4  2  0  0  0  0
  6  5  1  0  0  0  0
  7  9  1  0  0  0  0
  7 13  1  0  0  0  0
  8  7  2  0  0  0  0
  9  1  1  0  0  0  0
 10  9  1  0  0  0  0
 11 12  1  1  0  0  0
 11 18  1  0  0  0  0
 13 12  1  6  0  0  0
 14 13  1  0  0  0  0
 14 15  1  0  0  0  0
 15 11  1  0  0  0  0
 16 14  1  0  0  0  0
 17 25  1  0  0  0  0
 18 19  1  1  0  0  0
 18 17  1  0  0  0  0
 20 21  1  0  0  0  0
 21 22  1  0  0  0  0
 21 23  1  0  0  0  0
 23 24  1  6  0  0  0
 23 32  1  0  0  0  0
 24 25  2  0  0  0  0
 25 26  1  0  0  0  0
 26 27  1  0  0  0  0
 27 28  1  0  0  0  0
 28 29  2  0  0  0  0
 30 29  1  0  0  0  0
 31 30  2  0  0  0  0
 32 27  2  0  0  0  0
 32 31  1  0  0  0  0
 33 28  1  0  0  0  0
 33 35  2  0  0  0  0
 34 33  1  0  0  0  0
 36 34  1  0  0  0  0
 37 34  1  0  0  0  0
M  END
>  <minimizedAffinity>
9.59969997

$$$$
