
 OpenBabel10152419143D

 37 40  0  0  1  0  0  0  0  0999 V2000
    7.3620   -9.8340   12.8390 C   0  0  0  0  0  0  0  0  0  0  0  0
    6.5010   -9.7230   13.9300 C   0  0  0  0  0  3  0  0  0  0  0  0
    5.1590  -10.0610   13.7860 C   0  0  0  0  0  3  0  0  0  0  0  0
    4.6870  -10.5300   12.5590 C   0  0  0  0  0  3  0  0  0  0  0  0
    5.5560  -10.7590   11.4810 C   0  0  0  0  0  0  0  0  0  0  0  0
    6.9080  -10.4360   11.6560 C   0  0  0  0  0  3  0  0  0  0  0  0
    9.5800   -8.9850   11.9900 C   0  0  0  0  0  0  0  0  0  0  0  0
   10.7510   -8.8040   12.3240 O   0  0  0  0  0  0  0  0  0  0  0  0
    8.6510   -9.2860   12.9680 N   0  0  0  0  0  0  0  0  0  0  0  0
    8.9560   -9.0170   13.8950 H   0  0  0  0  0  0  0  0  0  0  0  0
    8.1360   -8.8410    8.6440 C   0  0  1  0  0  3  0  0  0  0  0  0
    7.9090   -8.7220   10.0330 C   0  0  0  0  0  2  0  0  0  0  0  0
    9.1550   -8.8360   10.6220 C   0  0  1  0  0  3  0  0  0  0  0  0
   10.0320   -8.7430    9.5770 N   0  0  0  0  0  0  0  0  0  0  0  0
    9.4460   -8.8200    8.3680 N   0  0  0  0  0  2  0  0  0  0  0  0
   11.0460   -8.7060    9.6310 H   0  0  0  0  0  0  0  0  0  0  0  0
    7.1610  -10.4260    6.9600 C   0  0  0  0  0  1  0  0  0  0  0  0
    7.0880   -9.0340    7.5830 C   0  0  0  0  0  3  0  0  0  0  0  0
    5.6720   -8.7310    8.0780 C   0  0  0  0  0  1  0  0  0  0  0  0
    5.0510  -11.2530   10.1330 C   0  0  0  0  0  2  0  0  0  0  0  0
    5.7570  -12.4400    9.6830 N   0  0  0  0  0  0  0  0  0  0  0  0
    5.8920  -12.5810    8.6970 H   0  0  0  0  0  0  0  0  0  0  0  0
    6.4990  -13.1560   10.6110 C   0  0  0  0  0  0  0  0  0  0  0  0
    5.8080  -13.7840   11.5790 N   0  0  0  0  0  0  0  0  0  0  0  0
    6.4950  -14.1820   12.6470 C   0  0  0  0  0  3  0  0  0  0  0  0
    7.7830  -13.9220   12.8790 N   0  0  0  0  0  0  0  0  0  0  0  0
    8.4870  -13.3310   11.8930 C   0  0  0  0  0  0  0  0  0  0  0  0
    9.8310  -12.9820   12.0600 C   0  0  0  0  0  0  0  0  0  0  0  0
   10.6220  -12.4610   11.0260 C   0  0  0  0  0  3  0  0  0  0  0  0
   10.0480  -12.2100    9.7910 C   0  0  0  0  0  3  0  0  0  0  0  0
    8.6860  -12.4390    9.6240 C   0  0  0  0  0  3  0  0  0  0  0  0
    7.8950  -12.9910   10.6690 C   0  0  0  0  0  0  0  0  0  0  0  0
   10.4510  -13.0220   13.3970 C   0  0  0  0  0  0  0  0  0  0  0  0
   10.7660  -11.8010   13.9310 N   0  0  0  0  0  0  0  0  0  0  0  0
   10.7710  -14.0760   13.9300 O   0  0  0  0  0  0  0  0  0  0  0  0
   11.2320  -11.7740   14.8270 H   0  0  0  0  0  0  0  0  0  0  0  0
   10.5230  -10.9310   13.4790 H   0  0  0  0  0  0  0  0  0  0  0  0
  1  9  1  0  0  0  0
  1  2  1  0  0  0  0
  3  2  2  0  0  0  0
  4  3  1  0  0  0  0
  5  6  1  0  0  0  0
  5  4  2  0  0  0  0
  6  1  2  0  0  0  0
  7  8  2  0  0  0  0
  7  9  1  0  0  0  0
  9 10  1  0  0  0  0
 11 18  1  1  0  0  0
 11 12  1  0  0  0  0
 12 13  1  0  0  0  0
 13  7  1  1  0  0  0
 14 16  1  0  0  0  0
 14 13  1  0  0  0  0
 15 11  1  0  0  0  0
 15 14  1  0  0  0  0
 17 18  1  0  0  0  0
 18 19  1  0  0  0  0
 20  5  1  0  0  0  0
 21 20  1  0  0  0  0
 21 23  1  0  0  0  0
 22 21  1  0  0  0  0
 23 32  2  0  0  0  0
 23 24  1  0  0  0  0
 24 25  2  0  0  0  0
 25 26  1  0  0  0  0
 27 28  1  0  0  0  0
 27 26  2  0  0  0  0
 28 33  1  0  0  0  0
 29 28  2  0  0  0  0
 30 29  1  0  0  0  0
 31 30  2  0  0  0  0
 31 32  1  0  0  0  0
 32 27  1  0  0  0  0
 33 35  2  0  0  0  0
 33 34  1  0  0  0  0
 34 36  1  0  0  0  0
 37 34  1  0  0  0  0
M  END
>  <minimizedAffinity>
9.49824619

$$$$
