REMARK  Name = 
REMARK  9 active torsions:
REMARK  status: ('A' for Active; 'I' for Inactive)
REMARK    1  A    between atoms: C_1  and  C_2
REMARK    2  A    between atoms: C_2  and  C_3
REMARK    3  A    between atoms: C_2  and  C_4
REMARK    4  A    between atoms: C_6  and  C_7
REMARK    5  A    between atoms: N_9  and  C_10
REMARK    6  A    between atoms: C_14  and  C_15
REMARK    7  A    between atoms: C_15  and  N_16
REMARK    8  A    between atoms: N_16  and  C_17
REMARK    9  A    between atoms: C_22  and  C_23
REMARK                            x       y       z     vdW  Elec       q    Type
REMARK                         _______ _______ _______ _____ _____    ______ ____
ROOT
ATOM      1  C   UNL     1      -2.546  -3.428   2.250  0.00  0.00    +0.034 A 
ATOM      2  C   UNL     1      -2.374  -4.702   1.711  0.00  0.00    +0.023 A 
ATOM      3  C   UNL     1      -1.123  -5.309   1.766  0.00  0.00    +0.002 A 
ATOM      4  C   UNL     1      -0.055  -4.651   2.379  0.00  0.00    +0.005 A 
ATOM      5  C   UNL     1      -0.232  -3.420   3.029  0.00  0.00    -0.029 A 
ATOM      6  C   UNL     1      -1.506  -2.838   2.984  0.00  0.00    +0.028 A 
ENDROOT
BRANCH   1   9
ATOM      7  C   UNL     1      -4.018  -1.417   1.861  0.00  0.00    +0.266 C 
ATOM      8  O   UNL     1      -5.183  -1.028   1.938  0.00  0.00    -0.268 OA
ATOM      9  N   UNL     1      -3.761  -2.769   1.988  0.00  0.00    -0.280 N 
ATOM     10  H   UNL     1      -4.578  -3.341   1.815  0.00  0.00    +0.155 HD
BRANCH   7  13
ATOM     11  C   UNL     1      -1.006   0.530   1.198  0.00  0.00    +0.066 A 
ATOM     12  C   UNL     1      -1.728  -0.654   0.930  0.00  0.00    +0.057 A 
ATOM     13  C   UNL     1      -2.936  -0.506   1.587  0.00  0.00    +0.121 A 
ATOM     14  N   UNL     1      -2.961   0.810   1.957  0.00  0.00    -0.272 N 
ATOM     15  N   UNL     1      -1.781   1.439   1.802  0.00  0.00    -0.178 NA
ATOM     16  H   UNL     1      -3.730   1.308   2.395  0.00  0.00    +0.189 HD
BRANCH  11  18
ATOM     17  C   UNL     1       0.689   1.281  -0.493  0.00  0.00    +0.014 C 
ATOM     18  C   UNL     1       0.454   0.765   0.924  0.00  0.00    +0.033 C 
ATOM     19  C   UNL     1       1.116   1.681   1.956  0.00  0.00    +0.014 C 
ENDBRANCH  11  18
ENDBRANCH   7  13
ENDBRANCH   1   9
BRANCH   5  20
ATOM     20  C   UNL     1       0.927  -2.684   3.685  0.00  0.00    +0.138 C 
BRANCH  20  21
ATOM     21  N   UNL     1       1.406  -3.363   4.875  0.00  0.00    -0.324 N 
ATOM     22  H   UNL     1       1.005  -3.125   5.766  0.00  0.00    +0.148 HD
BRANCH  21  23
ATOM     23  C   UNL     1       2.143  -4.528   4.718  0.00  0.00    +0.130 A 
ATOM     24  N   UNL     1       3.066  -4.528   3.739  0.00  0.00    -0.220 NA
ATOM     25  C   UNL     1       3.534  -5.713   3.354  0.00  0.00    +0.223 A 
ATOM     26  N   UNL     1       3.093  -6.896   3.786  0.00  0.00    -0.235 NA
ATOM     27  C   UNL     1       2.200  -6.898   4.795  0.00  0.00    +0.088 A 
ATOM     28  C   UNL     1       1.651  -8.087   5.286  0.00  0.00    +0.063 A 
ATOM     29  C   UNL     1       0.800  -8.136   6.399  0.00  0.00    +0.015 A 
ATOM     30  C   UNL     1       0.419  -6.957   7.017  0.00  0.00    +0.002 A 
ATOM     31  C   UNL     1       0.856  -5.748   6.486  0.00  0.00    +0.013 A 
ATOM     32  C   UNL     1       1.739  -5.706   5.372  0.00  0.00    +0.041 A 
BRANCH  28  33
ATOM     33  C   UNL     1       1.839  -9.353   4.554  0.00  0.00    +0.244 C 
ATOM     34  N   UNL     1       1.305  -9.384   3.294  0.00  0.00    -0.325 N 
ATOM     35  O   UNL     1       2.329 -10.340   5.086  0.00  0.00    -0.270 OA
ATOM     36  H   UNL     1       1.369 -10.243   2.766  0.00  0.00    +0.145 HD
ATOM     37  H   UNL     1       0.879  -8.575   2.864  0.00  0.00    +0.145 HD
ENDBRANCH  28  33
ENDBRANCH  21  23
ENDBRANCH  20  21
ENDBRANCH   5  20
TORSDOF 7
