
 OpenBabel10152419593D

 37 40  0  0  0  0  0  0  0  0999 V2000
   -0.3550  -11.9680  -24.0570 C   0  0  0  0  0  0  0  0  0  0  0  0
   -1.2980  -11.7210  -25.0550 C   0  0  0  0  0  3  0  0  0  0  0  0
   -0.9660  -10.9100  -26.1330 C   0  0  0  0  0  3  0  0  0  0  0  0
    0.3170  -10.3730  -26.2300 C   0  0  0  0  0  3  0  0  0  0  0  0
    1.3200  -10.6970  -25.3030 C   0  0  0  0  0  0  0  0  0  0  0  0
    0.9620  -11.5130  -24.2190 C   0  0  0  0  0  3  0  0  0  0  0  0
   -1.1340  -12.1760  -21.6610 C   0  0  0  0  0  0  0  0  0  0  0  0
   -1.2610  -12.9590  -20.7220 O   0  0  0  0  0  0  0  0  0  0  0  0
   -0.8010  -12.6500  -22.9120 N   0  0  0  0  0  0  0  0  0  0  0  0
   -0.9450  -13.6500  -22.9960 H   0  0  0  0  0  0  0  0  0  0  0  0
   -2.8940   -8.0240  -24.5080 C   0  0  0  0  0  1  0  0  0  0  0  0
   -2.7530   -7.7450  -23.1040 N   0  0  0  0  0  0  0  0  0  0  0  0
   -2.2420   -8.6110  -22.1770 C   0  0  0  0  0  0  0  0  0  0  0  0
   -2.0790   -9.9670  -22.4020 C   0  0  0  0  0  3  0  0  0  0  0  0
   -1.4310  -10.7420  -21.4350 C   0  0  0  0  0  0  0  0  0  0  0  0
   -1.0720  -10.1750  -20.2200 C   0  0  0  0  0  3  0  0  0  0  0  0
   -1.3200   -8.8300  -20.0570 C   0  0  0  0  0  3  0  0  0  0  0  0
   -1.8730   -8.0470  -21.0120 N   0  0  0  0  0  0  0  0  0  0  0  0
   -2.7920   -6.7870  -22.7780 H   0  0  0  0  0  0  0  0  0  0  0  0
    2.7250  -10.1130  -25.3790 C   0  0  0  0  0  2  0  0  0  0  0  0
    2.7250   -8.6630  -25.3150 N   0  0  0  0  0  0  0  0  0  0  0  0
    3.0680   -8.2110  -24.4850 H   0  0  0  0  0  0  0  0  0  0  0  0
    2.3650   -7.9260  -26.4310 C   0  0  0  0  0  0  0  0  0  0  0  0
    3.1470   -8.0550  -27.5170 N   0  0  0  0  0  0  0  0  0  0  0  0
    3.0030   -7.1450  -28.4760 C   0  0  0  0  0  3  0  0  0  0  0  0
    2.2190   -6.0680  -28.4100 N   0  0  0  0  0  0  0  0  0  0  0  0
    1.4090   -5.9460  -27.3400 C   0  0  0  0  0  0  0  0  0  0  0  0
    0.5860   -4.8260  -27.1690 C   0  0  0  0  0  0  0  0  0  0  0  0
   -0.3240   -4.7130  -26.1060 C   0  0  0  0  0  3  0  0  0  0  0  0
   -0.3820   -5.7050  -25.1420 C   0  0  0  0  0  3  0  0  0  0  0  0
    0.4900   -6.7840  -25.2320 C   0  0  0  0  0  3  0  0  0  0  0  0
    1.3900   -6.9150  -26.3240 C   0  0  0  0  0  0  0  0  0  0  0  0
    0.7050   -3.6380  -28.0460 C   0  0  0  0  0  0  0  0  0  0  0  0
    0.2700   -2.4500  -27.5220 N   0  0  0  0  0  0  0  0  0  0  0  0
    1.0650   -3.7350  -29.2090 O   0  0  0  0  0  0  0  0  0  0  0  0
    0.2940   -1.6270  -28.1080 H   0  0  0  0  0  0  0  0  0  0  0  0
   -0.0040   -2.3570  -26.5530 H   0  0  0  0  0  0  0  0  0  0  0  0
  1  9  1  0  0  0  0
  2  1  2  0  0  0  0
  3  2  1  0  0  0  0
  4  3  2  0  0  0  0
  4  5  1  0  0  0  0
  5  6  2  0  0  0  0
  6  1  1  0  0  0  0
  7 15  1  0  0  0  0
  7  8  2  0  0  0  0
  9  7  1  0  0  0  0
 10  9  1  0  0  0  0
 11 12  1  0  0  0  0
 12 19  1  0  0  0  0
 12 13  1  0  0  0  0
 13 18  1  0  0  0  0
 14 13  2  0  0  0  0
 14 15  1  0  0  0  0
 15 16  2  0  0  0  0
 16 17  1  0  0  0  0
 18 17  2  0  0  0  0
 20 21  1  0  0  0  0
 20  5  1  0  0  0  0
 21 22  1  0  0  0  0
 23 32  1  0  0  0  0
 23 21  1  0  0  0  0
 24 23  2  0  0  0  0
 25 26  2  0  0  0  0
 25 24  1  0  0  0  0
 26 27  1  0  0  0  0
 27 28  2  0  0  0  0
 27 32  1  0  0  0  0
 28 29  1  0  0  0  0
 29 30  2  0  0  0  0
 31 30  1  0  0  0  0
 32 31  2  0  0  0  0
 33 34  1  0  0  0  0
 33 28  1  0  0  0  0
 34 37  1  0  0  0  0
 35 33  2  0  0  0  0
 36 34  1  0  0  0  0
M  END
>  <minimizedAffinity>
-8.50036049

$$$$
