
 OpenBabel10152419593D

 37 40  0  0  0  0  0  0  0  0999 V2000
    2.7900  -12.1600  -25.6730 C   0  0  0  0  0  0  0  0  0  0  0  0
    2.9640  -12.9540  -26.8080 C   0  0  0  0  0  3  0  0  0  0  0  0
    3.3470  -12.3680  -28.0080 C   0  0  0  0  0  3  0  0  0  0  0  0
    3.5870  -10.9950  -28.0650 C   0  0  0  0  0  3  0  0  0  0  0  0
    3.5320  -10.1910  -26.9160 C   0  0  0  0  0  0  0  0  0  0  0  0
    3.1380  -10.8020  -25.7160 C   0  0  0  0  0  3  0  0  0  0  0  0
    1.1550  -12.4270  -23.7640 C   0  0  0  0  0  0  0  0  0  0  0  0
    0.9840  -12.9590  -22.6680 O   0  0  0  0  0  0  0  0  0  0  0  0
    2.2380  -12.7800  -24.5390 N   0  0  0  0  0  0  0  0  0  0  0  0
    2.6610  -13.6500  -24.2360 H   0  0  0  0  0  0  0  0  0  0  0  0
   -1.9320   -8.5690  -21.7570 C   0  0  0  0  0  1  0  0  0  0  0  0
   -2.0060   -8.6830  -23.1880 N   0  0  0  0  0  0  0  0  0  0  0  0
   -1.3800   -9.6430  -23.9340 C   0  0  0  0  0  0  0  0  0  0  0  0
   -0.3550  -10.4400  -23.4560 C   0  0  0  0  0  3  0  0  0  0  0  0
    0.1320  -11.4760  -24.2590 C   0  0  0  0  0  0  0  0  0  0  0  0
   -0.3280  -11.6160  -25.5610 C   0  0  0  0  0  3  0  0  0  0  0  0
   -1.3120  -10.7460  -25.9770 C   0  0  0  0  0  3  0  0  0  0  0  0
   -1.8510   -9.7890  -25.1880 N   0  0  0  0  0  0  0  0  0  0  0  0
   -2.7410   -8.2020  -23.6910 H   0  0  0  0  0  0  0  0  0  0  0  0
    3.7760   -8.6890  -26.9560 C   0  0  0  0  0  2  0  0  0  0  0  0
    2.7890   -7.9470  -26.1940 N   0  0  0  0  0  0  0  0  0  0  0  0
    2.8100   -7.9940  -25.1900 H   0  0  0  0  0  0  0  0  0  0  0  0
    1.9090   -7.1010  -26.8490 C   0  0  0  0  0  0  0  0  0  0  0  0
    2.1780   -6.8330  -28.1380 N   0  0  0  0  0  0  0  0  0  0  0  0
    1.5360   -5.8060  -28.6880 C   0  0  0  0  0  3  0  0  0  0  0  0
    0.7240   -4.9660  -28.0430 N   0  0  0  0  0  0  0  0  0  0  0  0
    0.4250   -5.2440  -26.7590 C   0  0  0  0  0  0  0  0  0  0  0  0
   -0.3830   -4.3920  -25.9950 C   0  0  0  0  0  0  0  0  0  0  0  0
   -0.7750   -4.7000  -24.6820 C   0  0  0  0  0  3  0  0  0  0  0  0
   -0.3040   -5.8510  -24.0760 C   0  0  0  0  0  3  0  0  0  0  0  0
    0.5780   -6.6680  -24.7750 C   0  0  0  0  0  3  0  0  0  0  0  0
    0.9510   -6.3750  -26.1150 C   0  0  0  0  0  0  0  0  0  0  0  0
   -0.7880   -3.0570  -26.4940 C   0  0  0  0  0  0  0  0  0  0  0  0
    0.0850   -2.4370  -27.3460 N   0  0  0  0  0  0  0  0  0  0  0  0
   -1.7920   -2.4960  -26.0800 O   0  0  0  0  0  0  0  0  0  0  0  0
   -0.1370   -1.5070  -27.6710 H   0  0  0  0  0  0  0  0  0  0  0  0
    0.9020   -2.9050  -27.7150 H   0  0  0  0  0  0  0  0  0  0  0  0
  1  9  1  0  0  0  0
  2  1  2  0  0  0  0
  3  2  1  0  0  0  0
  4  3  2  0  0  0  0
  4  5  1  0  0  0  0
  5  6  2  0  0  0  0
  6  1  1  0  0  0  0
  7  8  2  0  0  0  0
  9 10  1  0  0  0  0
  9  7  1  0  0  0  0
 12 11  1  0  0  0  0
 13 14  1  0  0  0  0
 13 12  1  0  0  0  0
 15  7  1  0  0  0  0
 15 14  2  0  0  0  0
 16 15  1  0  0  0  0
 17 16  2  0  0  0  0
 17 18  1  0  0  0  0
 18 13  2  0  0  0  0
 19 12  1  0  0  0  0
 20  5  1  0  0  0  0
 20 21  1  0  0  0  0
 21 22  1  0  0  0  0
 23 21  1  0  0  0  0
 23 32  1  0  0  0  0
 24 23  2  0  0  0  0
 25 24  1  0  0  0  0
 25 26  2  0  0  0  0
 26 27  1  0  0  0  0
 27 32  2  0  0  0  0
 27 28  1  0  0  0  0
 28 29  2  0  0  0  0
 29 30  1  0  0  0  0
 31 30  2  0  0  0  0
 32 31  1  0  0  0  0
 33 35  2  0  0  0  0
 33 28  1  0  0  0  0
 34 33  1  0  0  0  0
 36 34  1  0  0  0  0
 37 34  1  0  0  0  0
M  END
>  <minimizedAffinity>
-9.1499815

$$$$
