
 OpenBabel10152419593D

 37 40  0  0  0  0  0  0  0  0999 V2000
    2.5580  -11.9760  -24.7820 C   0  0  0  0  0  0  0  0  0  0  0  0
    3.4440  -12.7320  -25.5500 C   0  0  0  0  0  3  0  0  0  0  0  0
    4.0930  -12.1480  -26.6310 C   0  0  0  0  0  3  0  0  0  0  0  0
    3.8820  -10.8010  -26.9220 C   0  0  0  0  0  3  0  0  0  0  0  0
    3.0870   -9.9870  -26.1000 C   0  0  0  0  0  0  0  0  0  0  0  0
    2.4360  -10.5990  -25.0170 C   0  0  0  0  0  3  0  0  0  0  0  0
    0.5790  -12.3680  -23.2590 C   0  0  0  0  0  0  0  0  0  0  0  0
    0.2040  -12.9590  -22.2480 O   0  0  0  0  0  0  0  0  0  0  0  0
    1.8050  -12.6630  -23.8140 N   0  0  0  0  0  0  0  0  0  0  0  0
    2.1800  -13.5410  -23.4740 H   0  0  0  0  0  0  0  0  0  0  0  0
   -2.4150   -8.2000  -21.8040 C   0  0  0  0  0  1  0  0  0  0  0  0
   -2.3900   -8.4280  -23.2240 N   0  0  0  0  0  0  0  0  0  0  0  0
   -1.7690   -9.4770  -23.8420 C   0  0  0  0  0  0  0  0  0  0  0  0
   -0.8300  -10.2850  -23.2250 C   0  0  0  0  0  3  0  0  0  0  0  0
   -0.3480  -11.4080  -23.9040 C   0  0  0  0  0  0  0  0  0  0  0  0
   -0.7180  -11.6300  -25.2230 C   0  0  0  0  0  3  0  0  0  0  0  0
   -1.6160  -10.7470  -25.7810 C   0  0  0  0  0  3  0  0  0  0  0  0
   -2.1540   -9.7000  -25.1130 N   0  0  0  0  0  0  0  0  0  0  0  0
   -3.0570   -7.9510  -23.8190 H   0  0  0  0  0  0  0  0  0  0  0  0
    2.8310   -8.5180  -26.4050 C   0  0  0  0  0  2  0  0  0  0  0  0
    1.4170   -8.1880  -26.3910 N   0  0  0  0  0  0  0  0  0  0  0  0
    0.7570   -8.8500  -26.7610 H   0  0  0  0  0  0  0  0  0  0  0  0
    0.9880   -7.0260  -25.7710 C   0  0  0  0  0  0  0  0  0  0  0  0
    0.4900   -7.1550  -24.5280 N   0  0  0  0  0  0  0  0  0  0  0  0
   -0.1950   -6.1230  -24.0430 C   0  0  0  0  0  3  0  0  0  0  0  0
   -0.5080   -5.0160  -24.7170 N   0  0  0  0  0  0  0  0  0  0  0  0
    0.0120   -4.8650  -25.9520 C   0  0  0  0  0  0  0  0  0  0  0  0
   -0.3010   -3.7540  -26.7460 C   0  0  0  0  0  0  0  0  0  0  0  0
    0.2900   -3.5340  -28.0010 C   0  0  0  0  0  3  0  0  0  0  0  0
    1.1670   -4.4680  -28.5220 C   0  0  0  0  0  3  0  0  0  0  0  0
    1.4230   -5.6280  -27.7990 C   0  0  0  0  0  3  0  0  0  0  0  0
    0.8510   -5.8390  -26.5150 C   0  0  0  0  0  0  0  0  0  0  0  0
   -1.3600   -2.7950  -26.3530 C   0  0  0  0  0  0  0  0  0  0  0  0
   -1.0660   -1.9620  -25.3070 N   0  0  0  0  0  0  0  0  0  0  0  0
   -2.4700   -2.8240  -26.8610 O   0  0  0  0  0  0  0  0  0  0  0  0
   -1.7800   -1.3250  -24.9830 H   0  0  0  0  0  0  0  0  0  0  0  0
   -0.1410   -1.9130  -24.9000 H   0  0  0  0  0  0  0  0  0  0  0  0
  1  9  1  0  0  0  0
  2  1  2  0  0  0  0
  3  2  1  0  0  0  0
  4  3  2  0  0  0  0
  4  5  1  0  0  0  0
  5  6  2  0  0  0  0
  6  1  1  0  0  0  0
  7  8  2  0  0  0  0
  9 10  1  0  0  0  0
  9  7  1  0  0  0  0
 12 11  1  0  0  0  0
 13 14  1  0  0  0  0
 13 12  1  0  0  0  0
 15  7  1  0  0  0  0
 15 14  2  0  0  0  0
 16 15  1  0  0  0  0
 17 16  2  0  0  0  0
 17 18  1  0  0  0  0
 18 13  2  0  0  0  0
 19 12  1  0  0  0  0
 20 21  1  0  0  0  0
 20  5  1  0  0  0  0
 21 23  1  0  0  0  0
 22 21  1  0  0  0  0
 23 24  1  0  0  0  0
 24 25  2  0  0  0  0
 26 25  1  0  0  0  0
 27 26  2  0  0  0  0
 28 33  1  0  0  0  0
 28 27  1  0  0  0  0
 29 28  2  0  0  0  0
 30 29  1  0  0  0  0
 30 31  2  0  0  0  0
 31 32  1  0  0  0  0
 32 27  1  0  0  0  0
 32 23  2  0  0  0  0
 33 34  1  0  0  0  0
 34 36  1  0  0  0  0
 34 37  1  0  0  0  0
 35 33  2  0  0  0  0
M  END
>  <minimizedAffinity>
-8.72927094

$$$$
