REMARK  Name = 
REMARK  7 active torsions:
REMARK  status: ('A' for Active; 'I' for Inactive)
REMARK    1  A    between atoms: C_1  and  N_2
REMARK    2  A    between atoms: C_5  and  C_6
REMARK    3  A    between atoms: N_8  and  C_9
REMARK    4  A    between atoms: C_13  and  C_14
REMARK    5  A    between atoms: C_14  and  N_15
REMARK    6  A    between atoms: N_15  and  C_16
REMARK    7  A    between atoms: C_21  and  C_22
REMARK                            x       y       z     vdW  Elec       q    Type
REMARK                         _______ _______ _______ _____ _____    ______ ____
ROOT
ATOM      1  C   UNL     1      -2.812   0.091   0.976  0.00  0.00    +0.034 A 
ATOM      2  C   UNL     1      -2.642   1.425   1.349  0.00  0.00    +0.023 A 
ATOM      3  C   UNL     1      -1.977   2.300   0.499  0.00  0.00    +0.002 A 
ATOM      4  C   UNL     1      -1.512   1.850  -0.736  0.00  0.00    +0.005 A 
ATOM      5  C   UNL     1      -1.769   0.546  -1.187  0.00  0.00    -0.029 A 
ATOM      6  C   UNL     1      -2.437  -0.323  -0.310  0.00  0.00    +0.028 A 
ENDROOT
BRANCH   1   9
ATOM      7  C   UNL     1      -3.174  -2.140   2.108  0.00  0.00    +0.248 C 
ATOM      8  O   UNL     1      -3.915  -2.760   2.869  0.00  0.00    -0.270 OA
ATOM      9  N   UNL     1      -3.336  -0.781   1.946  0.00  0.00    -0.281 N 
ATOM     10  H   UNL     1      -3.901  -0.370   2.680  0.00  0.00    +0.155 HD
BRANCH   7  15
ATOM     11  C   UNL     1       1.813  -1.109   0.524  0.00  0.00    +0.127 C 
ATOM     12  N   UNL     1       1.436  -2.490   0.387  0.00  0.00    -0.332 N 
ATOM     13  C   UNL     1       0.191  -2.995   0.642  0.00  0.00    +0.119 A 
ATOM     14  C   UNL     1      -0.782  -2.315   1.353  0.00  0.00    +0.056 A 
ATOM     15  C   UNL     1      -2.063  -2.867   1.450  0.00  0.00    +0.042 A 
ATOM     16  C   UNL     1      -2.310  -4.135   0.943  0.00  0.00    +0.033 A 
ATOM     17  C   UNL     1      -1.270  -4.767   0.297  0.00  0.00    +0.113 A 
ATOM     18  N   UNL     1      -0.047  -4.215   0.124  0.00  0.00    -0.240 NA
ATOM     19  H   UNL     1       2.018  -3.116  -0.156  0.00  0.00    +0.147 HD
ENDBRANCH   7  15
ENDBRANCH   1   9
BRANCH   5  20
ATOM     20  C   UNL     1      -1.260   0.027  -2.525  0.00  0.00    +0.138 C 
BRANCH  20  21
ATOM     21  N   UNL     1      -1.637   0.887  -3.632  0.00  0.00    -0.324 N 
ATOM     22  H   UNL     1      -2.467   0.672  -4.157  0.00  0.00    +0.148 HD
BRANCH  21  23
ATOM     23  C   UNL     1      -0.919   2.046  -3.877  0.00  0.00    +0.130 A 
ATOM     24  N   UNL     1       0.403   1.998  -3.636  0.00  0.00    -0.220 NA
ATOM     25  C   UNL     1       1.047   3.160  -3.572  0.00  0.00    +0.223 A 
ATOM     26  N   UNL     1       0.478   4.365  -3.632  0.00  0.00    -0.235 NA
ATOM     27  C   UNL     1      -0.841   4.423  -3.903  0.00  0.00    +0.088 A 
ATOM     28  C   UNL     1      -1.527   5.644  -3.941  0.00  0.00    +0.063 A 
ATOM     29  C   UNL     1      -2.881   5.738  -4.300  0.00  0.00    +0.015 A 
ATOM     30  C   UNL     1      -3.603   4.588  -4.568  0.00  0.00    +0.002 A 
ATOM     31  C   UNL     1      -2.974   3.354  -4.445  0.00  0.00    +0.013 A 
ATOM     32  C   UNL     1      -1.596   3.258  -4.112  0.00  0.00    +0.041 A 
BRANCH  28  33
ATOM     33  C   UNL     1      -0.887   6.905  -3.498  0.00  0.00    +0.244 C 
ATOM     34  N   UNL     1      -0.214   6.858  -2.307  0.00  0.00    -0.325 N 
ATOM     35  O   UNL     1      -1.047   7.952  -4.107  0.00  0.00    -0.270 OA
ATOM     36  H   UNL     1       0.197   7.710  -1.952  0.00  0.00    +0.145 HD
ATOM     37  H   UNL     1      -0.054   5.991  -1.812  0.00  0.00    +0.145 HD
ENDBRANCH  28  33
ENDBRANCH  21  23
ENDBRANCH  20  21
ENDBRANCH   5  20
TORSDOF 6
