
 OpenBabel10152418583D

 35 38  0  0  1  0  0  0  0  0999 V2000
    4.0970  -11.2550    8.8180 C   0  0  0  0  0  1  0  0  0  0  0  0
    4.5390   -9.9160    9.4260 C   0  0  2  0  0  3  0  0  0  0  0  0
    5.7150   -9.3480    8.6460 C   0  0  0  0  0  0  0  0  0  0  0  0
    5.6670   -9.1800    7.2550 C   0  0  0  0  0  3  0  0  0  0  0  0
    6.8220   -8.8660    6.5460 C   0  0  0  0  0  3  0  0  0  0  0  0
    8.0350   -8.7120    7.2190 C   0  0  0  0  0  3  0  0  0  0  0  0
    8.1110   -8.8300    8.6110 C   0  0  0  0  0  0  0  0  0  0  0  0
    6.9270   -9.0880    9.3160 C   0  0  0  0  0  3  0  0  0  0  0  0
    9.3200   -8.7520    9.3320 N   0  0  0  0  0  0  0  0  0  0  0  0
    9.8250   -9.6070   10.3140 C   0  0  0  0  0  0  0  0  0  0  0  0
    9.8600  -10.9830   10.1410 C   0  0  0  0  0  3  0  0  0  0  0  0
   10.2490  -11.7860   11.2090 C   0  0  0  0  0  0  0  0  0  0  0  0
   10.6050  -11.1990   12.4170 C   0  0  0  0  0  3  0  0  0  0  0  0
   10.5920   -9.8190   12.4870 C   0  0  0  0  0  3  0  0  0  0  0  0
   10.2320   -9.0210   11.4590 N   0  0  0  0  0  0  0  0  0  0  0  0
    9.5680   -7.7980    9.5790 H   0  0  0  0  0  0  0  0  0  0  0  0
   10.2540  -13.2110   11.0620 C   0  0  0  0  0  0  0  0  0  0  0  0
   10.2530  -14.3630   10.9380 N   0  0  0  0  0  0  0  0  0  0  0  0
    4.7610  -10.0890   10.8740 N   0  0  0  0  0  0  0  0  0  0  0  0
    3.9960   -9.7280   11.4370 H   0  0  0  0  0  0  0  0  0  0  0  0
    5.2160  -11.2340   11.4980 C   0  0  0  0  0  0  0  0  0  0  0  0
    4.5260  -12.3210   11.1170 N   0  0  0  0  0  0  0  0  0  0  0  0
    5.0050  -13.4970   11.5170 C   0  0  0  0  0  3  0  0  0  0  0  0
    6.1160  -13.6920   12.2350 N   0  0  0  0  0  0  0  0  0  0  0  0
    6.7880  -12.6020   12.6690 C   0  0  0  0  0  0  0  0  0  0  0  0
    7.9840  -12.7000   13.4140 C   0  0  0  0  0  0  0  0  0  0  0  0
    8.6400  -11.5550   13.9030 C   0  0  0  0  0  3  0  0  0  0  0  0
    8.1000  -10.2960   13.7020 C   0  0  0  0  0  3  0  0  0  0  0  0
    6.9340  -10.1780   12.9570 C   0  0  0  0  0  3  0  0  0  0  0  0
    6.3110  -11.3100   12.3770 C   0  0  0  0  0  0  0  0  0  0  0  0
    8.6500  -14.0040   13.7240 C   0  0  0  0  0  0  0  0  0  0  0  0
   10.0090  -14.0340   13.8260 N   0  0  0  0  0  0  0  0  0  0  0  0
    8.0040  -15.0370   13.8820 O   0  0  0  0  0  0  0  0  0  0  0  0
   10.4680  -14.9080   14.0310 H   0  0  0  0  0  0  0  0  0  0  0  0
   10.5560  -13.1850   13.7140 H   0  0  0  0  0  0  0  0  0  0  0  0
  2  1  1  6  0  0  0
  2 19  1  0  0  0  0
  3  8  1  0  0  0  0
  3  2  1  0  0  0  0
  4  3  2  0  0  0  0
  5  6  2  0  0  0  0
  5  4  1  0  0  0  0
  6  7  1  0  0  0  0
  7  8  2  0  0  0  0
  7  9  1  0  0  0  0
  9 16  1  0  0  0  0
  9 10  1  0  0  0  0
 10 15  1  0  0  0  0
 11 10  2  0  0  0  0
 11 12  1  0  0  0  0
 12 13  2  0  0  0  0
 13 14  1  0  0  0  0
 15 14  2  0  0  0  0
 17 12  1  0  0  0  0
 18 17  3  0  0  0  0
 19 20  1  0  0  0  0
 19 21  1  0  0  0  0
 21 30  1  0  0  0  0
 22 21  2  0  0  0  0
 22 23  1  0  0  0  0
 23 24  2  0  0  0  0
 24 25  1  0  0  0  0
 25 26  1  0  0  0  0
 26 31  1  0  0  0  0
 26 27  2  0  0  0  0
 28 27  1  0  0  0  0
 29 28  2  0  0  0  0
 30 25  2  0  0  0  0
 30 29  1  0  0  0  0
 31 32  1  0  0  0  0
 31 33  2  0  0  0  0
 32 34  1  0  0  0  0
 35 32  1  0  0  0  0
M  END
>  <minimizedAffinity>
16.1634083

$$$$
