REMARK  Name = 
REMARK  7 active torsions:
REMARK  status: ('A' for Active; 'I' for Inactive)
REMARK    1  A    between atoms: C_1  and  C_2
REMARK    2  A    between atoms: C_2  and  N_3
REMARK    3  A    between atoms: C_2  and  C_17
REMARK    4  A    between atoms: N_3  and  C_4
REMARK    5  A    between atoms: C_9  and  C_10
REMARK    6  A    between atoms: C_21  and  N_22
REMARK    7  A    between atoms: C_25  and  C_26
REMARK                            x       y       z     vdW  Elec       q    Type
REMARK                         _______ _______ _______ _____ _____    ______ ____
ROOT
ATOM      1  C   UNL     1       1.165   0.020   0.174  0.00  0.00    +0.033 C 
ATOM      2  C   UNL     1       0.426  -0.513   1.409  0.00  0.00    +0.099 C 
ENDROOT
BRANCH   2   3
ATOM      3  C   UNL     1      -1.078  -0.451   1.188  0.00  0.00    -0.026 A 
ATOM      4  C   UNL     1      -1.755   0.769   1.053  0.00  0.00    +0.005 A 
ATOM      5  C   UNL     1      -3.146   0.805   1.070  0.00  0.00    +0.002 A 
ATOM      6  C   UNL     1      -3.874  -0.376   1.218  0.00  0.00    +0.023 A 
ATOM      7  C   UNL     1      -3.232  -1.616   1.312  0.00  0.00    +0.033 A 
ATOM      8  C   UNL     1      -1.833  -1.640   1.233  0.00  0.00    +0.028 A 
BRANCH   7   9
ATOM      9  N   UNL     1      -3.915  -2.830   1.531  0.00  0.00    -0.299 N 
ATOM     10  C   UNL     1      -5.284  -3.066   1.666  0.00  0.00    +0.124 A 
ATOM     11  C   UNL     1      -6.209  -2.552   0.770  0.00  0.00    +0.062 A 
ATOM     12  C   UNL     1      -7.566  -2.711   1.036  0.00  0.00    +0.056 A 
ATOM     13  C   UNL     1      -7.967  -3.389   2.181  0.00  0.00    +0.038 A 
ATOM     14  C   UNL     1      -6.980  -3.914   2.993  0.00  0.00    +0.114 A 
ATOM     15  N   UNL     1      -5.659  -3.784   2.745  0.00  0.00    -0.240 NA
ATOM     16  H   UNL     1      -3.418  -3.449   2.165  0.00  0.00    +0.154 HD
BRANCH  12  17
ATOM     17  C   UNL     1      -8.536  -2.153   0.143  0.00  0.00    +0.099 C 
ATOM     18  N   UNL     1      -9.317  -1.696  -0.582  0.00  0.00    -0.191 NA
ENDBRANCH  12  17
ENDBRANCH   7   9
ENDBRANCH   2   3
BRANCH   2  19
ATOM     19  N   UNL     1       0.920   0.184   2.611  0.00  0.00    -0.322 N 
ATOM     20  H   UNL     1       1.700   0.806   2.415  0.00  0.00    +0.148 HD
BRANCH  19  21
ATOM     21  C   UNL     1       0.143   0.803   3.571  0.00  0.00    +0.130 A 
ATOM     22  N   UNL     1       0.462   2.098   3.717  0.00  0.00    -0.220 NA
ATOM     23  C   UNL     1      -0.350   2.826   4.481  0.00  0.00    +0.223 A 
ATOM     24  N   UNL     1      -1.459   2.392   5.088  0.00  0.00    -0.235 NA
ATOM     25  C   UNL     1      -1.760   1.077   4.991  0.00  0.00    +0.088 A 
ATOM     26  C   UNL     1      -2.921   0.524   5.576  0.00  0.00    +0.063 A 
ATOM     27  C   UNL     1      -3.189  -0.856   5.510  0.00  0.00    +0.015 A 
ATOM     28  C   UNL     1      -2.291  -1.718   4.904  0.00  0.00    +0.002 A 
ATOM     29  C   UNL     1      -1.153  -1.191   4.308  0.00  0.00    +0.013 A 
ATOM     30  C   UNL     1      -0.913   0.205   4.282  0.00  0.00    +0.041 A 
BRANCH  26  31
ATOM     31  C   UNL     1      -3.951   1.346   6.285  0.00  0.00    +0.244 C 
ATOM     32  N   UNL     1      -3.703   2.672   6.484  0.00  0.00    -0.325 N 
ATOM     33  O   UNL     1      -5.001   0.855   6.690  0.00  0.00    -0.270 OA
ATOM     34  H   UNL     1      -4.389   3.234   6.964  0.00  0.00    +0.145 HD
ATOM     35  H   UNL     1      -2.846   3.096   6.141  0.00  0.00    +0.145 HD
ENDBRANCH  26  31
ENDBRANCH  19  21
ENDBRANCH   2  19
TORSDOF 6
