
 OpenBabel10152418413D

 36 39  0  0  0  0  0  0  0  0999 V2000
    0.9490  -12.0390  -26.8420 C   0  0  0  0  0  2  0  0  0  0  0  0
   -1.9960   -9.3550  -22.2130 C   0  0  0  0  0  0  0  0  0  0  0  0
   -1.8210  -10.3340  -21.2250 C   0  0  0  0  0  3  0  0  0  0  0  0
   -1.1420  -11.5000  -21.5350 C   0  0  0  0  0  3  0  0  0  0  0  0
   -0.6620  -11.6770  -22.8300 C   0  0  0  0  0  3  0  0  0  0  0  0
   -0.8490  -10.6880  -23.8350 C   0  0  0  0  0  0  0  0  0  0  0  0
   -0.3920  -10.8150  -25.1630 C   0  0  0  0  0  0  0  0  0  0  0  0
    0.2580  -11.9780  -25.5660 N   0  0  0  0  0  0  0  0  0  0  0  0
   -0.5310   -9.8260  -26.0610 N   0  0  0  0  0  0  0  0  0  0  0  0
   -1.1630   -8.7260  -25.6510 C   0  0  0  0  0  3  0  0  0  0  0  0
   -1.6600   -8.5120  -24.4300 N   0  0  0  0  0  0  0  0  0  0  0  0
   -1.5140   -9.4910  -23.5210 C   0  0  0  0  0  0  0  0  0  0  0  0
   -0.1680  -12.8420  -25.2590 H   0  0  0  0  0  0  0  0  0  0  0  0
   -3.8220   -7.8480  -22.6130 N   0  0  0  0  0  0  0  0  0  0  0  0
   -2.7450   -8.1480  -21.8280 C   0  0  0  0  0  0  0  0  0  0  0  0
   -2.3740   -7.4250  -20.9150 O   0  0  0  0  0  0  0  0  0  0  0  0
   -4.3550   -7.0210  -22.3810 H   0  0  0  0  0  0  0  0  0  0  0  0
   -4.1430   -8.4450  -23.3630 H   0  0  0  0  0  0  0  0  0  0  0  0
    2.3590  -11.4870  -26.7930 C   0  0  0  0  0  0  0  0  0  0  0  0
    3.3700  -12.0390  -25.9960 C   0  0  0  0  0  3  0  0  0  0  0  0
    4.6590  -11.5070  -26.0160 C   0  0  0  0  0  3  0  0  0  0  0  0
    4.9680  -10.4340  -26.8550 C   0  0  0  0  0  3  0  0  0  0  0  0
    3.9950   -9.8940  -27.6940 C   0  0  0  0  0  0  0  0  0  0  0  0
    2.6920  -10.4100  -27.6360 C   0  0  0  0  0  3  0  0  0  0  0  0
    4.2140   -8.8160  -28.5710 N   0  0  0  0  0  0  0  0  0  0  0  0
    3.5470   -7.6300  -28.7600 C   0  0  0  0  0  0  0  0  0  0  0  0
    3.7510   -6.9610  -29.7730 O   0  0  0  0  0  0  0  0  0  0  0  0
    4.9920   -8.9100  -29.2140 H   0  0  0  0  0  0  0  0  0  0  0  0
    2.6270   -7.0820  -27.7540 C   0  0  0  0  0  0  0  0  0  0  0  0
    2.6720   -7.5890  -26.4480 C   0  0  0  0  0  3  0  0  0  0  0  0
    1.7820   -7.0990  -25.4900 C   0  0  0  0  0  3  0  0  0  0  0  0
    0.8480   -6.1300  -25.8500 C   0  0  0  0  0  0  0  0  0  0  0  0
   -0.0040   -5.6640  -24.9270 F   0  0  0  0  0  0  0  0  0  0  0  0
    0.7750   -5.6470  -27.1500 C   0  0  0  0  0  3  0  0  0  0  0  0
    1.6620   -6.1350  -28.1030 C   0  0  0  0  0  0  0  0  0  0  0  0
    1.5610   -5.6860  -29.3620 F   0  0  0  0  0  0  0  0  0  0  0  0
  1 19  1  0  0  0  0
  1  8  1  0  0  0  0
  2 15  1  0  0  0  0
  2  3  1  0  0  0  0
  4  3  2  0  0  0  0
  5  4  1  0  0  0  0
  6 12  1  0  0  0  0
  6  5  2  0  0  0  0
  7  6  1  0  0  0  0
  8 13  1  0  0  0  0
  8  7  1  0  0  0  0
  9 10  1  0  0  0  0
  9  7  2  0  0  0  0
 10 11  2  0  0  0  0
 11 12  1  0  0  0  0
 12  2  2  0  0  0  0
 14 17  1  0  0  0  0
 14 15  1  0  0  0  0
 15 16  2  0  0  0  0
 18 14  1  0  0  0  0
 19 20  1  0  0  0  0
 21 20  2  0  0  0  0
 22 21  1  0  0  0  0
 23 24  1  0  0  0  0
 23 22  2  0  0  0  0
 24 19  2  0  0  0  0
 25 23  1  0  0  0  0
 26 25  1  0  0  0  0
 26 29  1  0  0  0  0
 27 26  2  0  0  0  0
 28 25  1  0  0  0  0
 29 30  1  0  0  0  0
 30 31  2  0  0  0  0
 32 31  1  0  0  0  0
 32 33  1  0  0  0  0
 34 32  2  0  0  0  0
 35 29  2  0  0  0  0
 35 34  1  0  0  0  0
 36 35  1  0  0  0  0
M  END
>  <minimizedAffinity>
-8.57135391

$$$$
