
 OpenBabel10152418413D

 36 39  0  0  0  0  0  0  0  0999 V2000
   -1.3880   -7.0360  -26.4860 C   0  0  0  0  0  2  0  0  0  0  0  0
   -1.6460  -10.1120  -21.2170 C   0  0  0  0  0  0  0  0  0  0  0  0
   -1.7420   -9.0360  -20.3220 C   0  0  0  0  0  3  0  0  0  0  0  0
   -1.7260   -7.7420  -20.8110 C   0  0  0  0  0  3  0  0  0  0  0  0
   -1.5990   -7.5400  -22.1830 C   0  0  0  0  0  3  0  0  0  0  0  0
   -1.4910   -8.6310  -23.0890 C   0  0  0  0  0  0  0  0  0  0  0  0
   -1.3540   -8.4880  -24.4850 C   0  0  0  0  0  0  0  0  0  0  0  0
   -1.2820   -7.2170  -25.0490 N   0  0  0  0  0  0  0  0  0  0  0  0
   -1.3250   -9.5470  -25.3090 N   0  0  0  0  0  0  0  0  0  0  0  0
   -1.3890  -10.7530  -24.7430 C   0  0  0  0  0  3  0  0  0  0  0  0
   -1.4900  -11.0030  -23.4350 N   0  0  0  0  0  0  0  0  0  0  0  0
   -1.5330   -9.9480  -22.6030 C   0  0  0  0  0  0  0  0  0  0  0  0
   -0.6790   -6.5630  -24.5700 H   0  0  0  0  0  0  0  0  0  0  0  0
   -2.8770  -12.0330  -20.4670 N   0  0  0  0  0  0  0  0  0  0  0  0
   -1.6460  -11.4630  -20.6340 C   0  0  0  0  0  0  0  0  0  0  0  0
   -0.6160  -12.0000  -20.2560 O   0  0  0  0  0  0  0  0  0  0  0  0
   -2.9140  -12.9590  -20.0620 H   0  0  0  0  0  0  0  0  0  0  0  0
   -3.7330  -11.6020  -20.7870 H   0  0  0  0  0  0  0  0  0  0  0  0
   -0.3310   -6.1140  -27.0600 C   0  0  0  0  0  0  0  0  0  0  0  0
   -0.4730   -4.7220  -27.1040 C   0  0  0  0  0  3  0  0  0  0  0  0
    0.5470   -3.9200  -27.6170 C   0  0  0  0  0  3  0  0  0  0  0  0
    1.7380   -4.4940  -28.0650 C   0  0  0  0  0  3  0  0  0  0  0  0
    1.9280   -5.8730  -27.9900 C   0  0  0  0  0  0  0  0  0  0  0  0
    0.8790   -6.6730  -27.5120 C   0  0  0  0  0  3  0  0  0  0  0  0
    3.0920   -6.5380  -28.4170 N   0  0  0  0  0  0  0  0  0  0  0  0
    3.8030   -7.5860  -27.8860 C   0  0  0  0  0  0  0  0  0  0  0  0
    4.9450   -7.8210  -28.2810 O   0  0  0  0  0  0  0  0  0  0  0  0
    3.5250   -6.1870  -29.2630 H   0  0  0  0  0  0  0  0  0  0  0  0
    3.2240   -8.4990  -26.8910 C   0  0  0  0  0  0  0  0  0  0  0  0
    2.7340   -7.9690  -25.6890 C   0  0  0  0  0  3  0  0  0  0  0  0
    2.2100   -8.8280  -24.7210 C   0  0  0  0  0  3  0  0  0  0  0  0
    2.2010  -10.2020  -24.9530 C   0  0  0  0  0  0  0  0  0  0  0  0
    1.6970  -11.0210  -24.0210 F   0  0  0  0  0  0  0  0  0  0  0  0
    2.7150  -10.7380  -26.1280 C   0  0  0  0  0  3  0  0  0  0  0  0
    3.2360   -9.8810  -27.0910 C   0  0  0  0  0  0  0  0  0  0  0  0
    3.7590  -10.4110  -28.2050 F   0  0  0  0  0  0  0  0  0  0  0  0
  1  8  1  0  0  0  0
  2 15  1  0  0  0  0
  2  3  1  0  0  0  0
  4  3  2  0  0  0  0
  5  4  1  0  0  0  0
  6 12  1  0  0  0  0
  6  5  2  0  0  0  0
  7  6  1  0  0  0  0
  8 13  1  0  0  0  0
  8  7  1  0  0  0  0
  9 10  1  0  0  0  0
  9  7  2  0  0  0  0
 10 11  2  0  0  0  0
 11 12  1  0  0  0  0
 12  2  2  0  0  0  0
 14 17  1  0  0  0  0
 15 14  1  0  0  0  0
 15 16  2  0  0  0  0
 18 14  1  0  0  0  0
 19  1  1  0  0  0  0
 20 19  1  0  0  0  0
 21 20  2  0  0  0  0
 22 23  2  0  0  0  0
 22 21  1  0  0  0  0
 23 24  1  0  0  0  0
 24 19  2  0  0  0  0
 25 23  1  0  0  0  0
 25 26  1  0  0  0  0
 26 29  1  0  0  0  0
 27 26  2  0  0  0  0
 28 25  1  0  0  0  0
 29 30  1  0  0  0  0
 30 31  2  0  0  0  0
 32 31  1  0  0  0  0
 32 33  1  0  0  0  0
 34 32  2  0  0  0  0
 35 29  2  0  0  0  0
 35 34  1  0  0  0  0
 36 35  1  0  0  0  0
M  END
>  <minimizedAffinity>
-9.42150784

$$$$

 OpenBabel10152418413D

 36 39  0  0  0  0  0  0  0  0999 V2000
    0.1150   -5.8750  -24.1630 C   0  0  0  0  0  2  0  0  0  0  0  0
    3.5500   -7.8540  -28.8090 C   0  0  0  0  0  0  0  0  0  0  0  0
    4.3400   -8.7940  -28.1320 C   0  0  0  0  0  3  0  0  0  0  0  0
    4.1680   -8.9730  -26.7700 C   0  0  0  0  0  3  0  0  0  0  0  0
    3.2210   -8.2010  -26.1020 C   0  0  0  0  0  3  0  0  0  0  0  0
    2.4260   -7.2400  -26.7880 C   0  0  0  0  0  0  0  0  0  0  0  0
    1.4580   -6.4260  -26.1640 C   0  0  0  0  0  0  0  0  0  0  0  0
    1.2590   -6.5130  -24.7890 N   0  0  0  0  0  0  0  0  0  0  0  0
    0.6830   -5.5810  -26.8620 N   0  0  0  0  0  0  0  0  0  0  0  0
    0.9000   -5.5120  -28.1760 C   0  0  0  0  0  3  0  0  0  0  0  0
    1.8060   -6.2120  -28.8630 N   0  0  0  0  0  0  0  0  0  0  0  0
    2.5780   -7.0710  -28.1740 C   0  0  0  0  0  0  0  0  0  0  0  0
    2.1000   -6.5460  -24.2300 H   0  0  0  0  0  0  0  0  0  0  0  0
    4.7830   -6.8110  -30.5850 N   0  0  0  0  0  0  0  0  0  0  0  0
    3.7960   -7.6940  -30.2510 C   0  0  0  0  0  0  0  0  0  0  0  0
    3.1050   -8.2570  -31.0870 O   0  0  0  0  0  0  0  0  0  0  0  0
    4.9730   -6.6710  -31.5690 H   0  0  0  0  0  0  0  0  0  0  0  0
    5.3660   -6.3490  -29.9020 H   0  0  0  0  0  0  0  0  0  0  0  0
   -0.8570   -6.8540  -23.5370 C   0  0  0  0  0  0  0  0  0  0  0  0
   -1.3760   -6.6970  -22.2460 C   0  0  0  0  0  3  0  0  0  0  0  0
   -2.2930   -7.6160  -21.7330 C   0  0  0  0  0  3  0  0  0  0  0  0
   -2.7280   -8.6880  -22.5130 C   0  0  0  0  0  3  0  0  0  0  0  0
   -2.2660   -8.8440  -23.8180 C   0  0  0  0  0  0  0  0  0  0  0  0
   -1.3140   -7.9390  -24.3090 C   0  0  0  0  0  3  0  0  0  0  0  0
   -2.6490   -9.8920  -24.6750 N   0  0  0  0  0  0  0  0  0  0  0  0
   -1.9220  -10.8110  -25.3920 C   0  0  0  0  0  0  0  0  0  0  0  0
   -2.4580  -11.4570  -26.2920 O   0  0  0  0  0  0  0  0  0  0  0  0
   -3.6440  -10.0040  -24.8320 H   0  0  0  0  0  0  0  0  0  0  0  0
   -0.5170  -11.1080  -25.0830 C   0  0  0  0  0  0  0  0  0  0  0  0
    0.4510  -10.9210  -26.0800 C   0  0  0  0  0  3  0  0  0  0  0  0
    1.7850  -11.2300  -25.8090 C   0  0  0  0  0  3  0  0  0  0  0  0
    2.1340  -11.7400  -24.5610 C   0  0  0  0  0  0  0  0  0  0  0  0
    3.4160  -12.0340  -24.3070 F   0  0  0  0  0  0  0  0  0  0  0  0
    1.1760  -11.9580  -23.5780 C   0  0  0  0  0  3  0  0  0  0  0  0
   -0.1520  -11.6500  -23.8490 C   0  0  0  0  0  0  0  0  0  0  0  0
   -1.0720  -11.8970  -22.9060 F   0  0  0  0  0  0  0  0  0  0  0  0
  1 19  1  0  0  0  0
  2 12  2  0  0  0  0
  2  3  1  0  0  0  0
  3  4  2  0  0  0  0
  4  5  1  0  0  0  0
  6  7  1  0  0  0  0
  6  5  2  0  0  0  0
  7  8  1  0  0  0  0
  8 13  1  0  0  0  0
  8  1  1  0  0  0  0
  9  7  2  0  0  0  0
 10  9  1  0  0  0  0
 11 10  2  0  0  0  0
 11 12  1  0  0  0  0
 12  6  1  0  0  0  0
 14 15  1  0  0  0  0
 14 18  1  0  0  0  0
 15  2  1  0  0  0  0
 16 15  2  0  0  0  0
 17 14  1  0  0  0  0
 19 20  1  0  0  0  0
 20 21  2  0  0  0  0
 22 21  1  0  0  0  0
 23 22  2  0  0  0  0
 24 23  1  0  0  0  0
 24 19  2  0  0  0  0
 25 23  1  0  0  0  0
 26 29  1  0  0  0  0
 26 25  1  0  0  0  0
 27 26  2  0  0  0  0
 28 25  1  0  0  0  0
 29 35  1  0  0  0  0
 30 31  1  0  0  0  0
 30 29  2  0  0  0  0
 31 32  2  0  0  0  0
 32 33  1  0  0  0  0
 32 34  1  0  0  0  0
 35 34  2  0  0  0  0
 35 36  1  0  0  0  0
M  END
>  <minimizedAffinity>
-8.72640419

$$$$

 OpenBabel10152418413D

 36 39  0  0  0  0  0  0  0  0999 V2000
    0.9490  -12.0390  -26.8420 C   0  0  0  0  0  2  0  0  0  0  0  0
   -1.9960   -9.3550  -22.2130 C   0  0  0  0  0  0  0  0  0  0  0  0
   -1.8210  -10.3340  -21.2250 C   0  0  0  0  0  3  0  0  0  0  0  0
   -1.1420  -11.5000  -21.5350 C   0  0  0  0  0  3  0  0  0  0  0  0
   -0.6620  -11.6770  -22.8300 C   0  0  0  0  0  3  0  0  0  0  0  0
   -0.8490  -10.6880  -23.8350 C   0  0  0  0  0  0  0  0  0  0  0  0
   -0.3920  -10.8150  -25.1630 C   0  0  0  0  0  0  0  0  0  0  0  0
    0.2580  -11.9780  -25.5660 N   0  0  0  0  0  0  0  0  0  0  0  0
   -0.5310   -9.8260  -26.0610 N   0  0  0  0  0  0  0  0  0  0  0  0
   -1.1630   -8.7260  -25.6510 C   0  0  0  0  0  3  0  0  0  0  0  0
   -1.6600   -8.5120  -24.4300 N   0  0  0  0  0  0  0  0  0  0  0  0
   -1.5140   -9.4910  -23.5210 C   0  0  0  0  0  0  0  0  0  0  0  0
   -0.1680  -12.8420  -25.2590 H   0  0  0  0  0  0  0  0  0  0  0  0
   -3.8220   -7.8480  -22.6130 N   0  0  0  0  0  0  0  0  0  0  0  0
   -2.7450   -8.1480  -21.8280 C   0  0  0  0  0  0  0  0  0  0  0  0
   -2.3740   -7.4250  -20.9150 O   0  0  0  0  0  0  0  0  0  0  0  0
   -4.3550   -7.0210  -22.3810 H   0  0  0  0  0  0  0  0  0  0  0  0
   -4.1430   -8.4450  -23.3630 H   0  0  0  0  0  0  0  0  0  0  0  0
    2.3590  -11.4870  -26.7930 C   0  0  0  0  0  0  0  0  0  0  0  0
    3.3700  -12.0390  -25.9960 C   0  0  0  0  0  3  0  0  0  0  0  0
    4.6590  -11.5070  -26.0160 C   0  0  0  0  0  3  0  0  0  0  0  0
    4.9680  -10.4340  -26.8550 C   0  0  0  0  0  3  0  0  0  0  0  0
    3.9950   -9.8940  -27.6940 C   0  0  0  0  0  0  0  0  0  0  0  0
    2.6920  -10.4100  -27.6360 C   0  0  0  0  0  3  0  0  0  0  0  0
    4.2140   -8.8160  -28.5710 N   0  0  0  0  0  0  0  0  0  0  0  0
    3.5470   -7.6300  -28.7600 C   0  0  0  0  0  0  0  0  0  0  0  0
    3.7510   -6.9610  -29.7730 O   0  0  0  0  0  0  0  0  0  0  0  0
    4.9920   -8.9100  -29.2140 H   0  0  0  0  0  0  0  0  0  0  0  0
    2.6270   -7.0820  -27.7540 C   0  0  0  0  0  0  0  0  0  0  0  0
    2.6720   -7.5890  -26.4480 C   0  0  0  0  0  3  0  0  0  0  0  0
    1.7820   -7.0990  -25.4900 C   0  0  0  0  0  3  0  0  0  0  0  0
    0.8480   -6.1300  -25.8500 C   0  0  0  0  0  0  0  0  0  0  0  0
   -0.0040   -5.6640  -24.9270 F   0  0  0  0  0  0  0  0  0  0  0  0
    0.7750   -5.6470  -27.1500 C   0  0  0  0  0  3  0  0  0  0  0  0
    1.6620   -6.1350  -28.1030 C   0  0  0  0  0  0  0  0  0  0  0  0
    1.5610   -5.6860  -29.3620 F   0  0  0  0  0  0  0  0  0  0  0  0
  1 19  1  0  0  0  0
  1  8  1  0  0  0  0
  2 15  1  0  0  0  0
  2  3  1  0  0  0  0
  4  3  2  0  0  0  0
  5  4  1  0  0  0  0
  6 12  1  0  0  0  0
  6  5  2  0  0  0  0
  7  6  1  0  0  0  0
  8 13  1  0  0  0  0
  8  7  1  0  0  0  0
  9 10  1  0  0  0  0
  9  7  2  0  0  0  0
 10 11  2  0  0  0  0
 11 12  1  0  0  0  0
 12  2  2  0  0  0  0
 14 17  1  0  0  0  0
 14 15  1  0  0  0  0
 15 16  2  0  0  0  0
 18 14  1  0  0  0  0
 19 20  1  0  0  0  0
 21 20  2  0  0  0  0
 22 21  1  0  0  0  0
 23 24  1  0  0  0  0
 23 22  2  0  0  0  0
 24 19  2  0  0  0  0
 25 23  1  0  0  0  0
 26 25  1  0  0  0  0
 26 29  1  0  0  0  0
 27 26  2  0  0  0  0
 28 25  1  0  0  0  0
 29 30  1  0  0  0  0
 30 31  2  0  0  0  0
 32 31  1  0  0  0  0
 32 33  1  0  0  0  0
 34 32  2  0  0  0  0
 35 29  2  0  0  0  0
 35 34  1  0  0  0  0
 36 35  1  0  0  0  0
M  END
>  <minimizedAffinity>
-8.57135391

$$$$

 OpenBabel10152418413D

 36 39  0  0  0  0  0  0  0  0999 V2000
    4.0500   -9.4280  -26.4050 C   0  0  0  0  0  2  0  0  0  0  0  0
   -0.8890   -9.8640  -22.8390 C   0  0  0  0  0  0  0  0  0  0  0  0
   -1.0800  -11.2530  -22.8730 C   0  0  0  0  0  3  0  0  0  0  0  0
   -0.2270  -12.0390  -23.6280 C   0  0  0  0  0  3  0  0  0  0  0  0
    0.7940  -11.4260  -24.3490 C   0  0  0  0  0  3  0  0  0  0  0  0
    0.9820  -10.0160  -24.3230 C   0  0  0  0  0  0  0  0  0  0  0  0
    1.9920   -9.3400  -25.0370 C   0  0  0  0  0  0  0  0  0  0  0  0
    2.8610  -10.0560  -25.8570 N   0  0  0  0  0  0  0  0  0  0  0  0
    2.1750   -8.0140  -24.9290 N   0  0  0  0  0  0  0  0  0  0  0  0
    1.3250   -7.3520  -24.1430 C   0  0  0  0  0  3  0  0  0  0  0  0
    0.3180   -7.8860  -23.4470 N   0  0  0  0  0  0  0  0  0  0  0  0
    0.1350   -9.2140  -23.5390 C   0  0  0  0  0  0  0  0  0  0  0  0
    2.4270  -10.7550  -26.4430 H   0  0  0  0  0  0  0  0  0  0  0  0
   -1.3580   -8.5960  -20.8550 N   0  0  0  0  0  0  0  0  0  0  0  0
   -1.8420   -9.0810  -22.0370 C   0  0  0  0  0  0  0  0  0  0  0  0
   -3.0080   -8.9450  -22.3760 O   0  0  0  0  0  0  0  0  0  0  0  0
   -1.9890   -8.0590  -20.2760 H   0  0  0  0  0  0  0  0  0  0  0  0
   -0.3930   -8.6930  -20.5720 H   0  0  0  0  0  0  0  0  0  0  0  0
    3.8350   -8.8130  -27.7730 C   0  0  0  0  0  0  0  0  0  0  0  0
    4.0080   -9.5230  -28.9670 C   0  0  0  0  0  3  0  0  0  0  0  0
    3.7660   -8.9120  -30.1980 C   0  0  0  0  0  3  0  0  0  0  0  0
    3.3170   -7.5920  -30.2540 C   0  0  0  0  0  3  0  0  0  0  0  0
    3.0900   -6.8740  -29.0810 C   0  0  0  0  0  0  0  0  0  0  0  0
    3.3760   -7.4840  -27.8510 C   0  0  0  0  0  3  0  0  0  0  0  0
    2.6390   -5.5420  -29.0410 N   0  0  0  0  0  0  0  0  0  0  0  0
    1.4600   -4.9790  -28.6160 C   0  0  0  0  0  0  0  0  0  0  0  0
    1.1780   -3.8240  -28.9320 O   0  0  0  0  0  0  0  0  0  0  0  0
    3.2730   -4.8410  -29.4080 H   0  0  0  0  0  0  0  0  0  0  0  0
    0.5300   -5.6900  -27.7290 C   0  0  0  0  0  0  0  0  0  0  0  0
    0.3600   -7.0720  -27.8920 C   0  0  0  0  0  3  0  0  0  0  0  0
   -0.5450   -7.7550  -27.0770 C   0  0  0  0  0  3  0  0  0  0  0  0
   -1.2820   -7.0510  -26.1270 C   0  0  0  0  0  0  0  0  0  0  0  0
   -2.1480   -7.7110  -25.3470 F   0  0  0  0  0  0  0  0  0  0  0  0
   -1.1430   -5.6760  -25.9800 C   0  0  0  0  0  3  0  0  0  0  0  0
   -0.2420   -4.9980  -26.7930 C   0  0  0  0  0  0  0  0  0  0  0  0
   -0.1410   -3.6670  -26.6670 F   0  0  0  0  0  0  0  0  0  0  0  0
  1  8  1  0  0  0  0
  2 15  1  0  0  0  0
  3  2  1  0  0  0  0
  4  3  2  0  0  0  0
  5  6  2  0  0  0  0
  5  4  1  0  0  0  0
  6 12  1  0  0  0  0
  7  9  2  0  0  0  0
  7  6  1  0  0  0  0
  8  7  1  0  0  0  0
  9 10  1  0  0  0  0
 10 11  2  0  0  0  0
 12 11  1  0  0  0  0
 12  2  2  0  0  0  0
 13  8  1  0  0  0  0
 14 18  1  0  0  0  0
 14 17  1  0  0  0  0
 15 14  1  0  0  0  0
 16 15  2  0  0  0  0
 19  1  1  0  0  0  0
 20 19  2  0  0  0  0
 21 20  1  0  0  0  0
 22 21  2  0  0  0  0
 22 23  1  0  0  0  0
 23 25  1  0  0  0  0
 23 24  2  0  0  0  0
 24 19  1  0  0  0  0
 25 26  1  0  0  0  0
 26 29  1  0  0  0  0
 27 26  2  0  0  0  0
 28 25  1  0  0  0  0
 29 35  1  0  0  0  0
 30 29  2  0  0  0  0
 30 31  1  0  0  0  0
 31 32  2  0  0  0  0
 32 34  1  0  0  0  0
 32 33  1  0  0  0  0
 35 36  1  0  0  0  0
 35 34  2  0  0  0  0
M  END
>  <minimizedAffinity>
-8.18727303

$$$$
