REMARK  Name = 
REMARK  5 active torsions:
REMARK  status: ('A' for Active; 'I' for Inactive)
REMARK    1  A    between atoms: C_2  and  C_4
REMARK    2  A    between atoms: N_10  and  C_11
REMARK    3  A    between atoms: C_11  and  C_12
REMARK    4  A    between atoms: C_16  and  N_17
REMARK    5  A    between atoms: C_18  and  C_20
REMARK                            x       y       z     vdW  Elec       q    Type
REMARK                         _______ _______ _______ _____ _____    ______ ____
ROOT
ATOM      1  C   UNL     1       0.592   6.170  -6.070  0.00  0.00    +0.138 C 
ENDROOT
BRANCH   1   8
ATOM      2  C   UNL     1       0.759   1.363  -2.307  0.00  0.00    +0.063 A 
ATOM      3  C   UNL     1       1.719   0.582  -2.967  0.00  0.00    +0.015 A 
ATOM      4  C   UNL     1       2.273   1.041  -4.149  0.00  0.00    +0.002 A 
ATOM      5  C   UNL     1       1.850   2.264  -4.663  0.00  0.00    +0.013 A 
ATOM      6  C   UNL     1       0.868   3.051  -3.999  0.00  0.00    +0.041 A 
ATOM      7  C   UNL     1       0.396   4.292  -4.474  0.00  0.00    +0.130 A 
ATOM      8  N   UNL     1       0.870   4.799  -5.681  0.00  0.00    -0.324 N 
ATOM      9  N   UNL     1      -0.481   5.033  -3.779  0.00  0.00    -0.220 NA
ATOM     10  C   UNL     1      -0.924   4.521  -2.630  0.00  0.00    +0.223 A 
ATOM     11  N   UNL     1      -0.568   3.347  -2.102  0.00  0.00    -0.235 NA
ATOM     12  C   UNL     1       0.320   2.604  -2.785  0.00  0.00    +0.088 A 
ATOM     13  H   UNL     1       0.927   4.133  -6.439  0.00  0.00    +0.148 HD
BRANCH   2  15
ATOM     14  N   UNL     1       0.986   0.909   0.040  0.00  0.00    -0.325 N 
ATOM     15  C   UNL     1       0.191   0.811  -1.067  0.00  0.00    +0.244 C 
ATOM     16  O   UNL     1      -0.887   0.235  -1.054  0.00  0.00    -0.270 OA
ATOM     17  H   UNL     1       0.629   0.533   0.908  0.00  0.00    +0.145 HD
ATOM     18  H   UNL     1       1.873   1.393   0.042  0.00  0.00    +0.145 HD
ENDBRANCH   2  15
ENDBRANCH   1   8
BRANCH   1  19
ATOM     19  C   UNL     1       1.616   7.164  -5.560  0.00  0.00    -0.029 A 
ATOM     20  C   UNL     1       2.845   6.782  -5.009  0.00  0.00    +0.005 A 
ATOM     21  C   UNL     1       3.762   7.744  -4.584  0.00  0.00    +0.002 A 
ATOM     22  C   UNL     1       3.478   9.103  -4.730  0.00  0.00    +0.023 A 
ATOM     23  C   UNL     1       2.283   9.514  -5.318  0.00  0.00    +0.034 A 
ATOM     24  C   UNL     1       1.351   8.539  -5.704  0.00  0.00    +0.028 A 
BRANCH  23  25
ATOM     25  N   UNL     1       1.913  10.858  -5.506  0.00  0.00    -0.281 N 
ATOM     26  C   UNL     1       2.636  12.026  -5.486  0.00  0.00    +0.251 C 
ATOM     27  O   UNL     1       2.058  13.109  -5.400  0.00  0.00    -0.270 OA
ATOM     28  H   UNL     1       0.928  11.035  -5.668  0.00  0.00    +0.155 HD
BRANCH  26  29
ATOM     29  C   UNL     1       4.098  12.042  -5.630  0.00  0.00    +0.072 A 
ATOM     30  C   UNL     1       4.864  12.744  -4.689  0.00  0.00    +0.019 A 
ATOM     31  C   UNL     1       6.252  12.794  -4.832  0.00  0.00    +0.039 A 
ATOM     32  C   UNL     1       6.855  12.165  -5.919  0.00  0.00    +0.126 A 
ATOM     33  F   UNL     1       8.187  12.216  -6.051  0.00  0.00    -0.205 F 
ATOM     34  C   UNL     1       6.100  11.495  -6.874  0.00  0.00    +0.077 A 
ATOM     35  C   UNL     1       4.718  11.446  -6.730  0.00  0.00    +0.138 A 
ATOM     36  F   UNL     1       3.997  10.826  -7.675  0.00  0.00    -0.205 F 
ENDBRANCH  26  29
ENDBRANCH  23  25
ENDBRANCH   1  19
TORSDOF 5
