
 OpenBabel10152419303D

 38 41  0  0  1  0  0  0  0  0999 V2000
    4.0080   -7.7890  -30.4490 C   0  0  0  0  0  1  0  0  0  0  0  0
    4.7020   -8.3550  -29.2040 C   0  0  2  0  0  3  0  0  0  0  0  0
    4.3340   -9.8280  -29.0620 C   0  0  0  0  0  0  0  0  0  0  0  0
    3.9420  -10.5420  -30.2050 C   0  0  0  0  0  3  0  0  0  0  0  0
    3.6220  -11.8940  -30.1190 C   0  0  0  0  0  3  0  0  0  0  0  0
    3.7130  -12.5590  -28.8960 C   0  0  0  0  0  3  0  0  0  0  0  0
    4.1300  -11.8870  -27.7490 C   0  0  0  0  0  0  0  0  0  0  0  0
    4.3700  -10.5080  -27.8300 C   0  0  0  0  0  3  0  0  0  0  0  0
    4.3160  -12.4900  -26.4900 N   0  0  0  0  0  0  0  0  0  0  0  0
    3.5960  -12.4400  -25.3190 C   0  0  0  0  0  0  0  0  0  0  0  0
    4.0700  -12.8970  -24.2790 O   0  0  0  0  0  0  0  0  0  0  0  0
    5.1330  -13.0830  -26.3910 H   0  0  0  0  0  0  0  0  0  0  0  0
    2.2240  -11.9060  -25.2800 C   0  0  0  0  0  0  0  0  0  0  0  0
    1.4320  -12.0040  -26.4310 C   0  0  0  0  0  3  0  0  0  0  0  0
    0.1070  -11.5670  -26.3900 C   0  0  0  0  0  3  0  0  0  0  0  0
   -0.4000  -11.0130  -25.2150 C   0  0  0  0  0  0  0  0  0  0  0  0
   -1.6820  -10.6200  -25.1890 F   0  0  0  0  0  0  0  0  0  0  0  0
    0.4130  -10.8600  -24.0900 C   0  0  0  0  0  0  0  0  0  0  0  0
    1.7320  -11.3030  -24.1150 C   0  0  0  0  0  3  0  0  0  0  0  0
   -0.0980  -10.2860  -22.9590 O   0  0  0  0  0  0  0  0  0  0  0  0
    0.6400   -9.9630  -22.4060 H   0  0  0  0  0  0  0  0  0  0  0  0
    4.3960   -7.4920  -28.0580 N   0  0  0  0  0  0  0  0  0  0  0  0
    4.6500   -6.5160  -28.1920 H   0  0  0  0  0  0  0  0  0  0  0  0
    3.2840   -7.5360  -27.2500 C   0  0  0  0  0  0  0  0  0  0  0  0
    3.4470   -8.4040  -26.2390 N   0  0  0  0  0  0  0  0  0  0  0  0
    2.5360   -8.3700  -25.2720 C   0  0  0  0  0  3  0  0  0  0  0  0
    1.4990   -7.5310  -25.2030 N   0  0  0  0  0  0  0  0  0  0  0  0
    1.2950   -6.6940  -26.2460 C   0  0  0  0  0  0  0  0  0  0  0  0
    0.2500   -5.7500  -26.2560 C   0  0  0  0  0  0  0  0  0  0  0  0
   -0.0140   -4.9510  -27.3850 C   0  0  0  0  0  3  0  0  0  0  0  0
    0.7680   -5.0630  -28.5210 C   0  0  0  0  0  3  0  0  0  0  0  0
    1.8460   -5.9370  -28.5060 C   0  0  0  0  0  3  0  0  0  0  0  0
    2.1480   -6.7190  -27.3650 C   0  0  0  0  0  0  0  0  0  0  0  0
   -0.5990   -5.4670  -25.0610 C   0  0  0  0  0  0  0  0  0  0  0  0
   -1.0790   -6.5190  -24.3390 N   0  0  0  0  0  0  0  0  0  0  0  0
   -0.8280   -4.3100  -24.7180 O   0  0  0  0  0  0  0  0  0  0  0  0
   -1.6370   -6.3480  -23.5160 H   0  0  0  0  0  0  0  0  0  0  0  0
   -0.8130   -7.4730  -24.5720 H   0  0  0  0  0  0  0  0  0  0  0  0
  2  1  1  6  0  0  0
  2  3  1  0  0  0  0
  2 22  1  0  0  0  0
  3  8  1  0  0  0  0
  4  5  1  0  0  0  0
  4  3  2  0  0  0  0
  5  6  2  0  0  0  0
  6  7  1  0  0  0  0
  7  9  1  0  0  0  0
  8  7  2  0  0  0  0
  9 12  1  0  0  0  0
  9 10  1  0  0  0  0
 10 13  1  0  0  0  0
 10 11  2  0  0  0  0
 13 19  1  0  0  0  0
 14 15  1  0  0  0  0
 14 13  2  0  0  0  0
 15 16  2  0  0  0  0
 16 17  1  0  0  0  0
 16 18  1  0  0  0  0
 18 20  1  0  0  0  0
 19 18  2  0  0  0  0
 20 21  1  0  0  0  0
 22 24  1  0  0  0  0
 23 22  1  0  0  0  0
 24 25  1  0  0  0  0
 25 26  2  0  0  0  0
 26 27  1  0  0  0  0
 28 27  2  0  0  0  0
 29 28  1  0  0  0  0
 29 34  1  0  0  0  0
 30 29  2  0  0  0  0
 31 32  2  0  0  0  0
 31 30  1  0  0  0  0
 32 33  1  0  0  0  0
 33 24  2  0  0  0  0
 33 28  1  0  0  0  0
 34 36  2  0  0  0  0
 34 35  1  0  0  0  0
 35 37  1  0  0  0  0
 38 35  1  0  0  0  0
M  END
>  <minimizedAffinity>
-9.92790222

$$$$
