
 OpenBabel10152419303D

 38 41  0  0  1  0  0  0  0  0999 V2000
   -0.4580  -10.5100  -25.6020 C   0  0  0  0  0  1  0  0  0  0  0  0
    0.6050  -11.0610  -24.6440 C   0  0  2  0  0  3  0  0  0  0  0  0
   -0.0560  -11.3890  -23.3100 C   0  0  0  0  0  0  0  0  0  0  0  0
    0.2000  -12.6330  -22.7140 C   0  0  0  0  0  3  0  0  0  0  0  0
   -0.3670  -12.9590  -21.4850 C   0  0  0  0  0  3  0  0  0  0  0  0
   -1.1790  -12.0380  -20.8220 C   0  0  0  0  0  3  0  0  0  0  0  0
   -1.4280  -10.7820  -21.3720 C   0  0  0  0  0  0  0  0  0  0  0  0
   -0.9200  -10.4960  -22.6470 C   0  0  0  0  0  3  0  0  0  0  0  0
   -2.1770   -9.7670  -20.7450 N   0  0  0  0  0  0  0  0  0  0  0  0
   -2.4210   -8.4530  -21.0720 C   0  0  0  0  0  0  0  0  0  0  0  0
   -2.9470   -7.6980  -20.2550 O   0  0  0  0  0  0  0  0  0  0  0  0
   -2.6390  -10.0200  -19.8790 H   0  0  0  0  0  0  0  0  0  0  0  0
   -2.1250   -7.9260  -22.4150 C   0  0  0  0  0  0  0  0  0  0  0  0
   -2.9340   -8.3230  -23.4860 C   0  0  0  0  0  3  0  0  0  0  0  0
   -2.7120   -7.7790  -24.7510 C   0  0  0  0  0  3  0  0  0  0  0  0
   -1.6710   -6.8700  -24.9380 C   0  0  0  0  0  0  0  0  0  0  0  0
   -1.4880   -6.3400  -26.1560 F   0  0  0  0  0  0  0  0  0  0  0  0
   -0.8280   -6.5250  -23.8790 C   0  0  0  0  0  0  0  0  0  0  0  0
   -1.0470   -7.0530  -22.6110 C   0  0  0  0  0  3  0  0  0  0  0  0
    0.2040   -5.6550  -24.0930 O   0  0  0  0  0  0  0  0  0  0  0  0
    0.8650   -5.7660  -23.3820 H   0  0  0  0  0  0  0  0  0  0  0  0
    1.7340  -10.1240  -24.6010 N   0  0  0  0  0  0  0  0  0  0  0  0
    2.2080  -10.0840  -23.7020 H   0  0  0  0  0  0  0  0  0  0  0  0
    2.6630   -9.8880  -25.5850 C   0  0  0  0  0  0  0  0  0  0  0  0
    3.5550  -10.8890  -25.6680 N   0  0  0  0  0  0  0  0  0  0  0  0
    4.3640  -10.8810  -26.7230 C   0  0  0  0  0  3  0  0  0  0  0  0
    4.3440   -9.9890  -27.7170 N   0  0  0  0  0  0  0  0  0  0  0  0
    3.4890   -8.9460  -27.6110 C   0  0  0  0  0  0  0  0  0  0  0  0
    3.3700   -7.9700  -28.6200 C   0  0  0  0  0  0  0  0  0  0  0  0
    2.5500   -6.8380  -28.4590 C   0  0  0  0  0  3  0  0  0  0  0  0
    1.8180   -6.6610  -27.2980 C   0  0  0  0  0  3  0  0  0  0  0  0
    1.8680   -7.6460  -26.3210 C   0  0  0  0  0  3  0  0  0  0  0  0
    2.6580   -8.8100  -26.4850 C   0  0  0  0  0  0  0  0  0  0  0  0
    4.0300   -8.0970  -29.9530 C   0  0  0  0  0  0  0  0  0  0  0  0
    4.0790   -9.3260  -30.5410 N   0  0  0  0  0  0  0  0  0  0  0  0
    4.4850   -7.1080  -30.5200 O   0  0  0  0  0  0  0  0  0  0  0  0
    4.5030   -9.4290  -31.4510 H   0  0  0  0  0  0  0  0  0  0  0  0
    3.6210  -10.1260  -30.1120 H   0  0  0  0  0  0  0  0  0  0  0  0
  2  1  1  6  0  0  0
  2 22  1  0  0  0  0
  2  3  1  0  0  0  0
  3  4  2  0  0  0  0
  3  8  1  0  0  0  0
  4  5  1  0  0  0  0
  5  6  2  0  0  0  0
  7  6  1  0  0  0  0
  7  9  1  0  0  0  0
  8  7  2  0  0  0  0
  9 12  1  0  0  0  0
 10  9  1  0  0  0  0
 10 11  2  0  0  0  0
 13 10  1  0  0  0  0
 14 13  2  0  0  0  0
 15 14  1  0  0  0  0
 16 15  2  0  0  0  0
 16 18  1  0  0  0  0
 17 16  1  0  0  0  0
 18 19  2  0  0  0  0
 19 13  1  0  0  0  0
 20 18  1  0  0  0  0
 20 21  1  0  0  0  0
 22 23  1  0  0  0  0
 24 22  1  0  0  0  0
 25 24  1  0  0  0  0
 26 25  2  0  0  0  0
 27 28  2  0  0  0  0
 27 26  1  0  0  0  0
 28 33  1  0  0  0  0
 29 30  2  0  0  0  0
 29 28  1  0  0  0  0
 30 31  1  0  0  0  0
 31 32  2  0  0  0  0
 33 32  1  0  0  0  0
 33 24  2  0  0  0  0
 34 29  1  0  0  0  0
 35 38  1  0  0  0  0
 35 34  1  0  0  0  0
 36 34  2  0  0  0  0
 37 35  1  0  0  0  0
M  END
>  <minimizedAffinity>
-10.1171188

$$$$

 OpenBabel10152419303D

 38 41  0  0  1  0  0  0  0  0999 V2000
    2.2540   -8.3070  -24.1930 C   0  0  0  0  0  1  0  0  0  0  0  0
    2.2000   -9.3680  -25.3000 C   0  0  2  0  0  3  0  0  0  0  0  0
    2.7920   -8.7800  -26.5750 C   0  0  0  0  0  0  0  0  0  0  0  0
    3.6550   -9.5710  -27.3490 C   0  0  0  0  0  3  0  0  0  0  0  0
    4.1970   -9.0770  -28.5330 C   0  0  0  0  0  3  0  0  0  0  0  0
    3.8650   -7.7950  -28.9740 C   0  0  0  0  0  3  0  0  0  0  0  0
    2.9860   -6.9960  -28.2440 C   0  0  0  0  0  0  0  0  0  0  0  0
    2.5130   -7.4710  -27.0130 C   0  0  0  0  0  3  0  0  0  0  0  0
    2.5440   -5.7200  -28.6440 N   0  0  0  0  0  0  0  0  0  0  0  0
    1.3660   -5.0380  -28.4440 C   0  0  0  0  0  0  0  0  0  0  0  0
    1.1340   -4.0040  -29.0690 O   0  0  0  0  0  0  0  0  0  0  0  0
    3.1960   -5.1700  -29.1930 H   0  0  0  0  0  0  0  0  0  0  0  0
    0.3840   -5.4780  -27.4390 C   0  0  0  0  0  0  0  0  0  0  0  0
   -0.3970   -6.6080  -27.7120 C   0  0  0  0  0  3  0  0  0  0  0  0
   -1.2830   -7.0790  -26.7420 C   0  0  0  0  0  3  0  0  0  0  0  0
   -1.3980   -6.4030  -25.5270 C   0  0  0  0  0  0  0  0  0  0  0  0
   -2.2380   -6.8850  -24.5990 F   0  0  0  0  0  0  0  0  0  0  0  0
   -0.6630   -5.2410  -25.2850 C   0  0  0  0  0  0  0  0  0  0  0  0
    0.2310   -4.7680  -26.2410 C   0  0  0  0  0  3  0  0  0  0  0  0
   -0.8160   -4.5790  -24.0990 O   0  0  0  0  0  0  0  0  0  0  0  0
   -0.5050   -3.6590  -24.2080 H   0  0  0  0  0  0  0  0  0  0  0  0
    0.8300   -9.8850  -25.3930 N   0  0  0  0  0  0  0  0  0  0  0  0
    0.5260  -10.0930  -26.3410 H   0  0  0  0  0  0  0  0  0  0  0  0
    0.2090  -10.7680  -24.5420 C   0  0  0  0  0  0  0  0  0  0  0  0
    0.5490  -12.0370  -24.8200 N   0  0  0  0  0  0  0  0  0  0  0  0
    0.1900  -12.9590  -23.9310 C   0  0  0  0  0  3  0  0  0  0  0  0
   -0.4450  -12.7280  -22.7790 N   0  0  0  0  0  0  0  0  0  0  0  0
   -0.8410  -11.4610  -22.5200 C   0  0  0  0  0  0  0  0  0  0  0  0
   -1.4890  -11.1100  -21.3190 C   0  0  0  0  0  0  0  0  0  0  0  0
   -1.9850   -9.8110  -21.1000 C   0  0  0  0  0  3  0  0  0  0  0  0
   -1.8310   -8.8300  -22.0640 C   0  0  0  0  0  3  0  0  0  0  0  0
   -1.1350   -9.1370  -23.2240 C   0  0  0  0  0  3  0  0  0  0  0  0
   -0.5960  -10.4290  -23.4430 C   0  0  0  0  0  0  0  0  0  0  0  0
   -1.6280  -12.0500  -20.1680 C   0  0  0  0  0  0  0  0  0  0  0  0
   -0.5100  -12.6680  -19.6930 N   0  0  0  0  0  0  0  0  0  0  0  0
   -2.7220  -12.2310  -19.6390 O   0  0  0  0  0  0  0  0  0  0  0  0
   -0.5800  -13.2910  -18.9030 H   0  0  0  0  0  0  0  0  0  0  0  0
    0.4070  -12.4460  -20.0730 H   0  0  0  0  0  0  0  0  0  0  0  0
  2  1  1  1  0  0  0
  3  2  1  0  0  0  0
  4  3  2  0  0  0  0
  5  4  1  0  0  0  0
  6  5  2  0  0  0  0
  6  7  1  0  0  0  0
  7  8  2  0  0  0  0
  8  3  1  0  0  0  0
  9 10  1  0  0  0  0
  9  7  1  0  0  0  0
 10 13  1  0  0  0  0
 11 10  2  0  0  0  0
 12  9  1  0  0  0  0
 13 19  1  0  0  0  0
 14 13  2  0  0  0  0
 14 15  1  0  0  0  0
 15 16  2  0  0  0  0
 16 18  1  0  0  0  0
 16 17  1  0  0  0  0
 18 20  1  0  0  0  0
 19 18  2  0  0  0  0
 21 20  1  0  0  0  0
 22  2  1  0  0  0  0
 22 24  1  0  0  0  0
 23 22  1  0  0  0  0
 24 33  1  0  0  0  0
 25 24  2  0  0  0  0
 25 26  1  0  0  0  0
 26 27  2  0  0  0  0
 27 28  1  0  0  0  0
 28 29  1  0  0  0  0
 29 30  2  0  0  0  0
 29 34  1  0  0  0  0
 31 30  1  0  0  0  0
 32 31  2  0  0  0  0
 33 32  1  0  0  0  0
 33 28  2  0  0  0  0
 34 35  1  0  0  0  0
 34 36  2  0  0  0  0
 35 37  1  0  0  0  0
 38 35  1  0  0  0  0
M  END
>  <minimizedAffinity>
-10.0646477

$$$$

 OpenBabel10152419303D

 38 41  0  0  1  0  0  0  0  0999 V2000
    2.7660   -8.8080  -25.1950 C   0  0  0  0  0  1  0  0  0  0  0  0
    3.6300   -9.4540  -26.2860 C   0  0  2  0  0  3  0  0  0  0  0  0
    3.4980   -8.6380  -27.5660 C   0  0  0  0  0  0  0  0  0  0  0  0
    3.9340   -9.1980  -28.7760 C   0  0  0  0  0  3  0  0  0  0  0  0
    3.8070   -8.4930  -29.9690 C   0  0  0  0  0  3  0  0  0  0  0  0
    3.2200   -7.2260  -29.9750 C   0  0  0  0  0  3  0  0  0  0  0  0
    2.7480   -6.6550  -28.7950 C   0  0  0  0  0  0  0  0  0  0  0  0
    2.9560   -7.3380  -27.5890 C   0  0  0  0  0  3  0  0  0  0  0  0
    2.0840   -5.4150  -28.7160 N   0  0  0  0  0  0  0  0  0  0  0  0
    0.9380   -5.0130  -28.0700 C   0  0  0  0  0  0  0  0  0  0  0  0
    0.4400   -3.9150  -28.3150 O   0  0  0  0  0  0  0  0  0  0  0  0
    2.5040   -4.6460  -29.2270 H   0  0  0  0  0  0  0  0  0  0  0  0
    0.3110   -5.8420  -27.0270 C   0  0  0  0  0  0  0  0  0  0  0  0
   -0.3870   -6.9930  -27.4110 C   0  0  0  0  0  3  0  0  0  0  0  0
   -0.9270   -7.8270  -26.4320 C   0  0  0  0  0  3  0  0  0  0  0  0
   -0.7880   -7.4890  -25.0860 C   0  0  0  0  0  0  0  0  0  0  0  0
   -1.2930   -8.3150  -24.1580 F   0  0  0  0  0  0  0  0  0  0  0  0
   -0.1440   -6.3080  -24.7100 C   0  0  0  0  0  0  0  0  0  0  0  0
    0.4070   -5.4740  -25.6780 C   0  0  0  0  0  3  0  0  0  0  0  0
   -0.0480   -5.9830  -23.3860 O   0  0  0  0  0  0  0  0  0  0  0  0
    0.1220   -5.0230  -23.3070 H   0  0  0  0  0  0  0  0  0  0  0  0
    3.2870  -10.8780  -26.3790 N   0  0  0  0  0  0  0  0  0  0  0  0
    3.9690  -11.4380  -26.8840 H   0  0  0  0  0  0  0  0  0  0  0  0
    2.7220  -11.6680  -25.4070 C   0  0  0  0  0  0  0  0  0  0  0  0
    3.6570  -12.3330  -24.7100 N   0  0  0  0  0  0  0  0  0  0  0  0
    3.2500  -12.9530  -23.6070 C   0  0  0  0  0  3  0  0  0  0  0  0
    2.0070  -12.9430  -23.1170 N   0  0  0  0  0  0  0  0  0  0  0  0
    1.0490  -12.3240  -23.8430 C   0  0  0  0  0  0  0  0  0  0  0  0
   -0.2850  -12.2300  -23.3990 C   0  0  0  0  0  0  0  0  0  0  0  0
   -1.2940  -11.6700  -24.2040 C   0  0  0  0  0  3  0  0  0  0  0  0
   -0.9950  -11.1770  -25.4620 C   0  0  0  0  0  3  0  0  0  0  0  0
    0.3250  -11.1960  -25.8900 C   0  0  0  0  0  3  0  0  0  0  0  0
    1.3590  -11.7210  -25.0760 C   0  0  0  0  0  0  0  0  0  0  0  0
   -0.7120  -12.6360  -22.0270 C   0  0  0  0  0  0  0  0  0  0  0  0
   -2.0450  -12.6770  -21.7460 N   0  0  0  0  0  0  0  0  0  0  0  0
    0.1210  -12.9590  -21.1850 O   0  0  0  0  0  0  0  0  0  0  0  0
   -2.3550  -12.9680  -20.8310 H   0  0  0  0  0  0  0  0  0  0  0  0
   -2.7350  -12.4970  -22.4720 H   0  0  0  0  0  0  0  0  0  0  0  0
  2  1  1  1  0  0  0
  3  2  1  0  0  0  0
  4  3  2  0  0  0  0
  5  4  1  0  0  0  0
  6  5  2  0  0  0  0
  6  7  1  0  0  0  0
  7  9  1  0  0  0  0
  7  8  2  0  0  0  0
  8  3  1  0  0  0  0
  9 10  1  0  0  0  0
 10 13  1  0  0  0  0
 11 10  2  0  0  0  0
 12  9  1  0  0  0  0
 13 19  1  0  0  0  0
 14 13  2  0  0  0  0
 14 15  1  0  0  0  0
 15 16  2  0  0  0  0
 16 18  1  0  0  0  0
 16 17  1  0  0  0  0
 18 20  1  0  0  0  0
 19 18  2  0  0  0  0
 20 21  1  0  0  0  0
 22  2  1  0  0  0  0
 22 24  1  0  0  0  0
 23 22  1  0  0  0  0
 24 33  2  0  0  0  0
 24 25  1  0  0  0  0
 25 26  2  0  0  0  0
 26 27  1  0  0  0  0
 28 29  1  0  0  0  0
 28 27  2  0  0  0  0
 29 34  1  0  0  0  0
 30 29  2  0  0  0  0
 31 30  1  0  0  0  0
 32 31  2  0  0  0  0
 32 33  1  0  0  0  0
 33 28  1  0  0  0  0
 34 35  1  0  0  0  0
 34 36  2  0  0  0  0
 35 37  1  0  0  0  0
 38 35  1  0  0  0  0
M  END
>  <minimizedAffinity>
-10.0544176

$$$$

 OpenBabel10152419303D

 38 41  0  0  1  0  0  0  0  0999 V2000
   -4.0280   -8.1070  -23.4220 C   0  0  0  0  0  1  0  0  0  0  0  0
   -2.5740   -8.5210  -23.6820 C   0  0  2  0  0  3  0  0  0  0  0  0
   -1.7470   -7.2700  -23.9550 C   0  0  0  0  0  0  0  0  0  0  0  0
   -1.1800   -6.5820  -22.8720 C   0  0  0  0  0  3  0  0  0  0  0  0
   -0.3990   -5.4490  -23.0830 C   0  0  0  0  0  3  0  0  0  0  0  0
   -0.1520   -5.0010  -24.3820 C   0  0  0  0  0  3  0  0  0  0  0  0
   -0.6750   -5.6800  -25.4810 C   0  0  0  0  0  0  0  0  0  0  0  0
   -1.5270   -6.7690  -25.2530 C   0  0  0  0  0  3  0  0  0  0  0  0
   -0.4240   -5.3400  -26.8250 N   0  0  0  0  0  0  0  0  0  0  0  0
    0.6340   -5.5930  -27.6670 C   0  0  0  0  0  0  0  0  0  0  0  0
    0.7170   -5.0150  -28.7500 O   0  0  0  0  0  0  0  0  0  0  0  0
   -1.1430   -4.8000  -27.2940 H   0  0  0  0  0  0  0  0  0  0  0  0
    1.6560   -6.6000  -27.3370 C   0  0  0  0  0  0  0  0  0  0  0  0
    2.7260   -6.7870  -28.2210 C   0  0  0  0  0  3  0  0  0  0  0  0
    3.7400   -7.6870  -27.8900 C   0  0  0  0  0  3  0  0  0  0  0  0
    3.6600   -8.4070  -26.6980 C   0  0  0  0  0  0  0  0  0  0  0  0
    4.6550   -9.2500  -26.3860 F   0  0  0  0  0  0  0  0  0  0  0  0
    2.5590   -8.2640  -25.8510 C   0  0  0  0  0  0  0  0  0  0  0  0
    1.5480   -7.3610  -26.1660 C   0  0  0  0  0  3  0  0  0  0  0  0
    2.4880   -9.0040  -24.7040 O   0  0  0  0  0  0  0  0  0  0  0  0
    1.5570   -9.0370  -24.4050 H   0  0  0  0  0  0  0  0  0  0  0  0
   -2.5560   -9.5560  -24.7220 N   0  0  0  0  0  0  0  0  0  0  0  0
   -3.0600   -9.3050  -25.5690 H   0  0  0  0  0  0  0  0  0  0  0  0
   -1.5060  -10.3690  -25.0750 C   0  0  0  0  0  0  0  0  0  0  0  0
   -1.1310  -10.1610  -26.3480 N   0  0  0  0  0  0  0  0  0  0  0  0
    0.0090  -10.7250  -26.7340 C   0  0  0  0  0  3  0  0  0  0  0  0
    0.8260  -11.4460  -25.9610 N   0  0  0  0  0  0  0  0  0  0  0  0
    0.4270  -11.7080  -24.6950 C   0  0  0  0  0  0  0  0  0  0  0  0
    1.2300  -12.4330  -23.7920 C   0  0  0  0  0  0  0  0  0  0  0  0
    0.7670  -12.7840  -22.5100 C   0  0  0  0  0  3  0  0  0  0  0  0
   -0.4980  -12.4080  -22.0940 C   0  0  0  0  0  3  0  0  0  0  0  0
   -1.2780  -11.6340  -22.9420 C   0  0  0  0  0  3  0  0  0  0  0  0
   -0.8110  -11.2400  -24.2200 C   0  0  0  0  0  0  0  0  0  0  0  0
    2.6440  -12.8090  -24.0860 C   0  0  0  0  0  0  0  0  0  0  0  0
    3.0250  -12.9440  -25.3880 N   0  0  0  0  0  0  0  0  0  0  0  0
    3.4520  -12.9590  -23.1740 O   0  0  0  0  0  0  0  0  0  0  0  0
    3.9810  -13.1780  -25.6080 H   0  0  0  0  0  0  0  0  0  0  0  0
    2.3780  -12.7300  -26.1430 H   0  0  0  0  0  0  0  0  0  0  0  0
  2  1  1  6  0  0  0
  3  2  1  0  0  0  0
  3  4  1  0  0  0  0
  5  4  2  0  0  0  0
  6  5  1  0  0  0  0
  7  8  1  0  0  0  0
  7  6  2  0  0  0  0
  8  3  2  0  0  0  0
  9  7  1  0  0  0  0
 10 13  1  0  0  0  0
 10  9  1  0  0  0  0
 11 10  2  0  0  0  0
 12  9  1  0  0  0  0
 13 19  1  0  0  0  0
 14 15  1  0  0  0  0
 14 13  2  0  0  0  0
 15 16  2  0  0  0  0
 16 17  1  0  0  0  0
 16 18  1  0  0  0  0
 18 20  1  0  0  0  0
 19 18  2  0  0  0  0
 20 21  1  0  0  0  0
 22  2  1  0  0  0  0
 23 22  1  0  0  0  0
 24 22  1  0  0  0  0
 24 33  1  0  0  0  0
 25 24  2  0  0  0  0
 26 25  1  0  0  0  0
 26 27  2  0  0  0  0
 27 28  1  0  0  0  0
 28 33  2  0  0  0  0
 28 29  1  0  0  0  0
 29 30  2  0  0  0  0
 30 31  1  0  0  0  0
 32 31  2  0  0  0  0
 33 32  1  0  0  0  0
 34 29  1  0  0  0  0
 34 36  2  0  0  0  0
 35 34  1  0  0  0  0
 37 35  1  0  0  0  0
 38 35  1  0  0  0  0
M  END
>  <minimizedAffinity>
-9.94023418

$$$$

 OpenBabel10152419303D

 38 41  0  0  1  0  0  0  0  0999 V2000
    4.0080   -7.7890  -30.4490 C   0  0  0  0  0  1  0  0  0  0  0  0
    4.7020   -8.3550  -29.2040 C   0  0  2  0  0  3  0  0  0  0  0  0
    4.3340   -9.8280  -29.0620 C   0  0  0  0  0  0  0  0  0  0  0  0
    3.9420  -10.5420  -30.2050 C   0  0  0  0  0  3  0  0  0  0  0  0
    3.6220  -11.8940  -30.1190 C   0  0  0  0  0  3  0  0  0  0  0  0
    3.7130  -12.5590  -28.8960 C   0  0  0  0  0  3  0  0  0  0  0  0
    4.1300  -11.8870  -27.7490 C   0  0  0  0  0  0  0  0  0  0  0  0
    4.3700  -10.5080  -27.8300 C   0  0  0  0  0  3  0  0  0  0  0  0
    4.3160  -12.4900  -26.4900 N   0  0  0  0  0  0  0  0  0  0  0  0
    3.5960  -12.4400  -25.3190 C   0  0  0  0  0  0  0  0  0  0  0  0
    4.0700  -12.8970  -24.2790 O   0  0  0  0  0  0  0  0  0  0  0  0
    5.1330  -13.0830  -26.3910 H   0  0  0  0  0  0  0  0  0  0  0  0
    2.2240  -11.9060  -25.2800 C   0  0  0  0  0  0  0  0  0  0  0  0
    1.4320  -12.0040  -26.4310 C   0  0  0  0  0  3  0  0  0  0  0  0
    0.1070  -11.5670  -26.3900 C   0  0  0  0  0  3  0  0  0  0  0  0
   -0.4000  -11.0130  -25.2150 C   0  0  0  0  0  0  0  0  0  0  0  0
   -1.6820  -10.6200  -25.1890 F   0  0  0  0  0  0  0  0  0  0  0  0
    0.4130  -10.8600  -24.0900 C   0  0  0  0  0  0  0  0  0  0  0  0
    1.7320  -11.3030  -24.1150 C   0  0  0  0  0  3  0  0  0  0  0  0
   -0.0980  -10.2860  -22.9590 O   0  0  0  0  0  0  0  0  0  0  0  0
    0.6400   -9.9630  -22.4060 H   0  0  0  0  0  0  0  0  0  0  0  0
    4.3960   -7.4920  -28.0580 N   0  0  0  0  0  0  0  0  0  0  0  0
    4.6500   -6.5160  -28.1920 H   0  0  0  0  0  0  0  0  0  0  0  0
    3.2840   -7.5360  -27.2500 C   0  0  0  0  0  0  0  0  0  0  0  0
    3.4470   -8.4040  -26.2390 N   0  0  0  0  0  0  0  0  0  0  0  0
    2.5360   -8.3700  -25.2720 C   0  0  0  0  0  3  0  0  0  0  0  0
    1.4990   -7.5310  -25.2030 N   0  0  0  0  0  0  0  0  0  0  0  0
    1.2950   -6.6940  -26.2460 C   0  0  0  0  0  0  0  0  0  0  0  0
    0.2500   -5.7500  -26.2560 C   0  0  0  0  0  0  0  0  0  0  0  0
   -0.0140   -4.9510  -27.3850 C   0  0  0  0  0  3  0  0  0  0  0  0
    0.7680   -5.0630  -28.5210 C   0  0  0  0  0  3  0  0  0  0  0  0
    1.8460   -5.9370  -28.5060 C   0  0  0  0  0  3  0  0  0  0  0  0
    2.1480   -6.7190  -27.3650 C   0  0  0  0  0  0  0  0  0  0  0  0
   -0.5990   -5.4670  -25.0610 C   0  0  0  0  0  0  0  0  0  0  0  0
   -1.0790   -6.5190  -24.3390 N   0  0  0  0  0  0  0  0  0  0  0  0
   -0.8280   -4.3100  -24.7180 O   0  0  0  0  0  0  0  0  0  0  0  0
   -1.6370   -6.3480  -23.5160 H   0  0  0  0  0  0  0  0  0  0  0  0
   -0.8130   -7.4730  -24.5720 H   0  0  0  0  0  0  0  0  0  0  0  0
  2  1  1  6  0  0  0
  2  3  1  0  0  0  0
  2 22  1  0  0  0  0
  3  8  1  0  0  0  0
  4  5  1  0  0  0  0
  4  3  2  0  0  0  0
  5  6  2  0  0  0  0
  6  7  1  0  0  0  0
  7  9  1  0  0  0  0
  8  7  2  0  0  0  0
  9 12  1  0  0  0  0
  9 10  1  0  0  0  0
 10 13  1  0  0  0  0
 10 11  2  0  0  0  0
 13 19  1  0  0  0  0
 14 15  1  0  0  0  0
 14 13  2  0  0  0  0
 15 16  2  0  0  0  0
 16 17  1  0  0  0  0
 16 18  1  0  0  0  0
 18 20  1  0  0  0  0
 19 18  2  0  0  0  0
 20 21  1  0  0  0  0
 22 24  1  0  0  0  0
 23 22  1  0  0  0  0
 24 25  1  0  0  0  0
 25 26  2  0  0  0  0
 26 27  1  0  0  0  0
 28 27  2  0  0  0  0
 29 28  1  0  0  0  0
 29 34  1  0  0  0  0
 30 29  2  0  0  0  0
 31 32  2  0  0  0  0
 31 30  1  0  0  0  0
 32 33  1  0  0  0  0
 33 24  2  0  0  0  0
 33 28  1  0  0  0  0
 34 36  2  0  0  0  0
 34 35  1  0  0  0  0
 35 37  1  0  0  0  0
 38 35  1  0  0  0  0
M  END
>  <minimizedAffinity>
-9.92790222

$$$$

 OpenBabel10152419303D

 38 41  0  0  1  0  0  0  0  0999 V2000
   -0.7640   -9.8020  -26.1990 C   0  0  0  0  0  1  0  0  0  0  0  0
    0.7350   -9.8940  -25.8860 C   0  0  2  0  0  3  0  0  0  0  0  0
    0.9550  -10.9920  -24.8520 C   0  0  0  0  0  0  0  0  0  0  0  0
    2.2590  -11.4510  -24.6180 C   0  0  0  0  0  3  0  0  0  0  0  0
    2.5030  -12.4350  -23.6640 C   0  0  0  0  0  3  0  0  0  0  0  0
    1.4500  -12.9580  -22.9120 C   0  0  0  0  0  3  0  0  0  0  0  0
    0.1460  -12.5000  -23.0980 C   0  0  0  0  0  0  0  0  0  0  0  0
   -0.0980  -11.5700  -24.1180 C   0  0  0  0  0  3  0  0  0  0  0  0
   -0.9650  -12.9200  -22.3410 N   0  0  0  0  0  0  0  0  0  0  0  0
   -1.8240  -12.2520  -21.4990 C   0  0  0  0  0  0  0  0  0  0  0  0
   -2.6060  -12.8780  -20.7860 O   0  0  0  0  0  0  0  0  0  0  0  0
   -1.2060  -13.9030  -22.4040 H   0  0  0  0  0  0  0  0  0  0  0  0
   -1.8840  -10.7810  -21.4700 C   0  0  0  0  0  0  0  0  0  0  0  0
   -1.3660  -10.1080  -20.3560 C   0  0  0  0  0  3  0  0  0  0  0  0
   -1.3510   -8.7130  -20.3440 C   0  0  0  0  0  3  0  0  0  0  0  0
   -1.8760   -8.0080  -21.4270 C   0  0  0  0  0  0  0  0  0  0  0  0
   -1.8310   -6.6680  -21.4070 F   0  0  0  0  0  0  0  0  0  0  0  0
   -2.4470   -8.6830  -22.5080 C   0  0  0  0  0  0  0  0  0  0  0  0
   -2.4580  -10.0750  -22.5360 C   0  0  0  0  0  3  0  0  0  0  0  0
   -2.9830   -7.9700  -23.5430 O   0  0  0  0  0  0  0  0  0  0  0  0
   -3.6060   -8.5430  -24.0340 H   0  0  0  0  0  0  0  0  0  0  0  0
    1.2280   -8.5570  -25.5370 N   0  0  0  0  0  0  0  0  0  0  0  0
    2.1960   -8.3880  -25.8000 H   0  0  0  0  0  0  0  0  0  0  0  0
    0.5490   -7.3660  -25.6240 C   0  0  0  0  0  0  0  0  0  0  0  0
   -0.1660   -7.1270  -24.5130 N   0  0  0  0  0  0  0  0  0  0  0  0
   -0.6850   -5.9090  -24.3870 C   0  0  0  0  0  3  0  0  0  0  0  0
   -0.5290   -4.9000  -25.2490 N   0  0  0  0  0  0  0  0  0  0  0  0
    0.1410   -5.1500  -26.3970 C   0  0  0  0  0  0  0  0  0  0  0  0
    0.3860   -4.1460  -27.3550 C   0  0  0  0  0  0  0  0  0  0  0  0
    0.9970   -4.4370  -28.5890 C   0  0  0  0  0  3  0  0  0  0  0  0
    1.3920   -5.7280  -28.8900 C   0  0  0  0  0  3  0  0  0  0  0  0
    1.2230   -6.7180  -27.9320 C   0  0  0  0  0  3  0  0  0  0  0  0
    0.6450   -6.4350  -26.6700 C   0  0  0  0  0  0  0  0  0  0  0  0
    0.0960   -2.7030  -27.1090 C   0  0  0  0  0  0  0  0  0  0  0  0
   -1.0880   -2.3670  -26.5240 N   0  0  0  0  0  0  0  0  0  0  0  0
    0.9250   -1.8430  -27.3960 O   0  0  0  0  0  0  0  0  0  0  0  0
   -1.2930   -1.3980  -26.3310 H   0  0  0  0  0  0  0  0  0  0  0  0
   -1.7320   -3.0860  -26.2040 H   0  0  0  0  0  0  0  0  0  0  0  0
  2  1  1  1  0  0  0
  2 22  1  0  0  0  0
  2  3  1  0  0  0  0
  3  4  2  0  0  0  0
  3  8  1  0  0  0  0
  4  5  1  0  0  0  0
  5  6  2  0  0  0  0
  7  6  1  0  0  0  0
  7  9  1  0  0  0  0
  8  7  2  0  0  0  0
  9 10  1  0  0  0  0
 10 13  1  0  0  0  0
 10 11  2  0  0  0  0
 12  9  1  0  0  0  0
 13 14  1  0  0  0  0
 14 15  2  0  0  0  0
 16 17  1  0  0  0  0
 16 15  1  0  0  0  0
 18 16  2  0  0  0  0
 19 18  1  0  0  0  0
 19 13  2  0  0  0  0
 20 18  1  0  0  0  0
 21 20  1  0  0  0  0
 23 22  1  0  0  0  0
 24 22  1  0  0  0  0
 24 25  1  0  0  0  0
 25 26  2  0  0  0  0
 27 26  1  0  0  0  0
 28 27  2  0  0  0  0
 29 34  1  0  0  0  0
 29 28  1  0  0  0  0
 30 29  2  0  0  0  0
 31 30  1  0  0  0  0
 31 32  2  0  0  0  0
 32 33  1  0  0  0  0
 33 28  1  0  0  0  0
 33 24  2  0  0  0  0
 34 35  1  0  0  0  0
 35 37  1  0  0  0  0
 35 38  1  0  0  0  0
 36 34  2  0  0  0  0
M  END
>  <minimizedAffinity>
-9.76350975

$$$$

 OpenBabel10152419303D

 38 41  0  0  1  0  0  0  0  0999 V2000
    2.2370  -10.6450  -23.4310 C   0  0  0  0  0  1  0  0  0  0  0  0
    2.1450  -11.9810  -24.1790 C   0  0  2  0  0  3  0  0  0  0  0  0
    2.5560  -11.7630  -25.6300 C   0  0  0  0  0  0  0  0  0  0  0  0
    2.1200  -12.6740  -26.6040 C   0  0  0  0  0  3  0  0  0  0  0  0
    2.4550  -12.4940  -27.9430 C   0  0  0  0  0  3  0  0  0  0  0  0
    3.2110  -11.3880  -28.3330 C   0  0  0  0  0  3  0  0  0  0  0  0
    3.6340  -10.4470  -27.3950 C   0  0  0  0  0  0  0  0  0  0  0  0
    3.3610  -10.6830  -26.0400 C   0  0  0  0  0  3  0  0  0  0  0  0
    4.3420   -9.2700  -27.7050 N   0  0  0  0  0  0  0  0  0  0  0  0
    3.9730   -7.9450  -27.7400 C   0  0  0  0  0  0  0  0  0  0  0  0
    4.7210   -7.1060  -28.2410 O   0  0  0  0  0  0  0  0  0  0  0  0
    5.3160   -9.3850  -27.9610 H   0  0  0  0  0  0  0  0  0  0  0  0
    2.7180   -7.4780  -27.1270 C   0  0  0  0  0  0  0  0  0  0  0  0
    2.4460   -7.8310  -25.7990 C   0  0  0  0  0  3  0  0  0  0  0  0
    1.2960   -7.3390  -25.1820 C   0  0  0  0  0  3  0  0  0  0  0  0
    0.4190   -6.5280  -25.9020 C   0  0  0  0  0  0  0  0  0  0  0  0
   -0.6690   -6.0460  -25.2840 F   0  0  0  0  0  0  0  0  0  0  0  0
    0.6630   -6.2310  -27.2440 C   0  0  0  0  0  0  0  0  0  0  0  0
    1.8130   -6.7060  -27.8680 C   0  0  0  0  0  3  0  0  0  0  0  0
   -0.2260   -5.4590  -27.9390 O   0  0  0  0  0  0  0  0  0  0  0  0
   -0.0970   -5.6090  -28.8960 H   0  0  0  0  0  0  0  0  0  0  0  0
    0.8140  -12.5570  -23.9560 N   0  0  0  0  0  0  0  0  0  0  0  0
    0.8160  -13.5600  -23.7900 H   0  0  0  0  0  0  0  0  0  0  0  0
   -0.2260  -12.0090  -23.2430 C   0  0  0  0  0  0  0  0  0  0  0  0
   -0.3580  -12.5930  -22.0410 N   0  0  0  0  0  0  0  0  0  0  0  0
   -1.1800  -12.0040  -21.1790 C   0  0  0  0  0  3  0  0  0  0  0  0
   -1.8550  -10.8700  -21.3910 N   0  0  0  0  0  0  0  0  0  0  0  0
   -1.7720  -10.3080  -22.6190 C   0  0  0  0  0  0  0  0  0  0  0  0
   -2.4200   -9.0970  -22.9330 C   0  0  0  0  0  0  0  0  0  0  0  0
   -2.4080   -8.5710  -24.2380 C   0  0  0  0  0  3  0  0  0  0  0  0
   -1.7380   -9.2290  -25.2540 C   0  0  0  0  0  3  0  0  0  0  0  0
   -1.0360  -10.3860  -24.9500 C   0  0  0  0  0  3  0  0  0  0  0  0
   -1.0050  -10.9090  -23.6340 C   0  0  0  0  0  0  0  0  0  0  0  0
   -3.0910   -8.2470  -21.9070 C   0  0  0  0  0  0  0  0  0  0  0  0
   -2.3240   -7.6540  -20.9490 N   0  0  0  0  0  0  0  0  0  0  0  0
   -4.3050   -8.0590  -21.9490 O   0  0  0  0  0  0  0  0  0  0  0  0
   -2.7570   -7.0590  -20.2580 H   0  0  0  0  0  0  0  0  0  0  0  0
   -1.3100   -7.7360  -20.9700 H   0  0  0  0  0  0  0  0  0  0  0  0
  2 22  1  0  0  0  0
  2  1  1  1  0  0  0
  3  2  1  0  0  0  0
  4  3  2  0  0  0  0
  5  4  1  0  0  0  0
  6  5  2  0  0  0  0
  6  7  1  0  0  0  0
  7  8  2  0  0  0  0
  8  3  1  0  0  0  0
  9  7  1  0  0  0  0
 10  9  1  0  0  0  0
 10 13  1  0  0  0  0
 11 10  2  0  0  0  0
 12  9  1  0  0  0  0
 13 14  1  0  0  0  0
 14 15  2  0  0  0  0
 16 17  1  0  0  0  0
 16 15  1  0  0  0  0
 18 16  2  0  0  0  0
 19 18  1  0  0  0  0
 19 13  2  0  0  0  0
 20 18  1  0  0  0  0
 21 20  1  0  0  0  0
 22 23  1  0  0  0  0
 22 24  1  0  0  0  0
 24 25  1  0  0  0  0
 25 26  2  0  0  0  0
 27 26  1  0  0  0  0
 28 27  2  0  0  0  0
 29 28  1  0  0  0  0
 29 34  1  0  0  0  0
 30 29  2  0  0  0  0
 31 32  2  0  0  0  0
 31 30  1  0  0  0  0
 32 33  1  0  0  0  0
 33 24  2  0  0  0  0
 33 28  1  0  0  0  0
 34 35  1  0  0  0  0
 35 37  1  0  0  0  0
 36 34  2  0  0  0  0
 38 35  1  0  0  0  0
M  END
>  <minimizedAffinity>
-9.55823231

$$$$

 OpenBabel10152419303D

 38 41  0  0  1  0  0  0  0  0999 V2000
   -0.5420   -5.0790  -26.2810 C   0  0  0  0  0  1  0  0  0  0  0  0
   -0.2340   -6.3550  -25.4860 C   0  0  2  0  0  3  0  0  0  0  0  0
    1.1010   -6.9180  -25.9570 C   0  0  0  0  0  0  0  0  0  0  0  0
    1.7350   -7.8990  -25.1800 C   0  0  0  0  0  3  0  0  0  0  0  0
    2.9440   -8.4540  -25.5900 C   0  0  0  0  0  3  0  0  0  0  0  0
    3.5260   -8.0560  -26.7940 C   0  0  0  0  0  3  0  0  0  0  0  0
    2.9060   -7.1060  -27.6050 C   0  0  0  0  0  0  0  0  0  0  0  0
    1.7320   -6.4940  -27.1420 C   0  0  0  0  0  3  0  0  0  0  0  0
    3.3830   -6.6940  -28.8640 N   0  0  0  0  0  0  0  0  0  0  0  0
    3.9480   -7.3790  -29.9150 C   0  0  0  0  0  0  0  0  0  0  0  0
    4.4760   -6.7670  -30.8420 O   0  0  0  0  0  0  0  0  0  0  0  0
    3.3160   -5.7030  -29.0670 H   0  0  0  0  0  0  0  0  0  0  0  0
    3.8810   -8.8480  -30.0010 C   0  0  0  0  0  0  0  0  0  0  0  0
    3.3820   -9.4310  -31.1720 C   0  0  0  0  0  3  0  0  0  0  0  0
    3.3770  -10.8210  -31.2970 C   0  0  0  0  0  3  0  0  0  0  0  0
    3.8440  -11.6090  -30.2460 C   0  0  0  0  0  0  0  0  0  0  0  0
    3.8530  -12.9420  -30.3950 F   0  0  0  0  0  0  0  0  0  0  0  0
    4.2830  -11.0240  -29.0560 C   0  0  0  0  0  0  0  0  0  0  0  0
    4.3020   -9.6390  -28.9240 C   0  0  0  0  0  3  0  0  0  0  0  0
    4.7060  -11.8190  -28.0280 O   0  0  0  0  0  0  0  0  0  0  0  0
    4.6670  -11.3090  -27.1950 H   0  0  0  0  0  0  0  0  0  0  0  0
   -1.3900   -7.2540  -25.5710 N   0  0  0  0  0  0  0  0  0  0  0  0
   -1.9400   -7.1470  -26.4200 H   0  0  0  0  0  0  0  0  0  0  0  0
   -1.4560   -8.5710  -25.1830 C   0  0  0  0  0  0  0  0  0  0  0  0
   -1.3300   -9.3980  -26.2330 N   0  0  0  0  0  0  0  0  0  0  0  0
   -1.1550  -10.6870  -25.9580 C   0  0  0  0  0  3  0  0  0  0  0  0
   -1.0610  -11.2220  -24.7380 N   0  0  0  0  0  0  0  0  0  0  0  0
   -1.2460  -10.4040  -23.6760 C   0  0  0  0  0  0  0  0  0  0  0  0
   -1.1360  -10.8630  -22.3490 C   0  0  0  0  0  0  0  0  0  0  0  0
   -1.4250  -10.0290  -21.2520 C   0  0  0  0  0  3  0  0  0  0  0  0
   -1.8120   -8.7160  -21.4530 C   0  0  0  0  0  3  0  0  0  0  0  0
   -1.8590   -8.2240  -22.7500 C   0  0  0  0  0  3  0  0  0  0  0  0
   -1.5340   -9.0400  -23.8620 C   0  0  0  0  0  0  0  0  0  0  0  0
   -0.6340  -12.2250  -22.0010 C   0  0  0  0  0  0  0  0  0  0  0  0
    0.5400  -12.6460  -22.5500 N   0  0  0  0  0  0  0  0  0  0  0  0
   -1.2510  -12.9340  -21.2100 O   0  0  0  0  0  0  0  0  0  0  0  0
    0.9060  -13.5560  -22.3110 H   0  0  0  0  0  0  0  0  0  0  0  0
    1.0950  -12.0230  -23.1320 H   0  0  0  0  0  0  0  0  0  0  0  0
  2  1  1  6  0  0  0
  3  2  1  0  0  0  0
  3  4  1  0  0  0  0
  5  4  2  0  0  0  0
  6  5  1  0  0  0  0
  7  8  1  0  0  0  0
  7  6  2  0  0  0  0
  8  3  2  0  0  0  0
  9  7  1  0  0  0  0
 10  9  1  0  0  0  0
 11 10  2  0  0  0  0
 12  9  1  0  0  0  0
 13 10  1  0  0  0  0
 13 19  1  0  0  0  0
 14 13  2  0  0  0  0
 15 14  1  0  0  0  0
 15 16  2  0  0  0  0
 16 18  1  0  0  0  0
 17 16  1  0  0  0  0
 18 19  2  0  0  0  0
 18 20  1  0  0  0  0
 20 21  1  0  0  0  0
 22  2  1  0  0  0  0
 22 24  1  0  0  0  0
 23 22  1  0  0  0  0
 24 33  1  0  0  0  0
 25 26  1  0  0  0  0
 25 24  2  0  0  0  0
 26 27  2  0  0  0  0
 27 28  1  0  0  0  0
 28 29  1  0  0  0  0
 29 34  1  0  0  0  0
 29 30  2  0  0  0  0
 31 30  1  0  0  0  0
 32 31  2  0  0  0  0
 33 28  2  0  0  0  0
 33 32  1  0  0  0  0
 34 36  2  0  0  0  0
 35 37  1  0  0  0  0
 35 34  1  0  0  0  0
 38 35  1  0  0  0  0
M  END
>  <minimizedAffinity>
-9.41073895

$$$$

 OpenBabel10152419303D

 38 41  0  0  1  0  0  0  0  0999 V2000
   -1.1850  -10.5740  -24.4650 C   0  0  0  0  0  1  0  0  0  0  0  0
    0.1020   -9.8820  -24.9310 C   0  0  2  0  0  3  0  0  0  0  0  0
    1.2310  -10.9060  -24.9540 C   0  0  0  0  0  0  0  0  0  0  0  0
    1.5390  -11.6020  -23.7750 C   0  0  0  0  0  3  0  0  0  0  0  0
    2.5470  -12.5620  -23.7630 C   0  0  0  0  0  3  0  0  0  0  0  0
    3.2460  -12.8590  -24.9340 C   0  0  0  0  0  3  0  0  0  0  0  0
    2.9430  -12.2070  -26.1290 C   0  0  0  0  0  0  0  0  0  0  0  0
    1.9840  -11.1850  -26.1100 C   0  0  0  0  0  3  0  0  0  0  0  0
    3.5480  -12.4880  -27.3690 N   0  0  0  0  0  0  0  0  0  0  0  0
    3.9650  -11.6840  -28.4050 C   0  0  0  0  0  0  0  0  0  0  0  0
    4.2850  -12.1790  -29.4850 O   0  0  0  0  0  0  0  0  0  0  0  0
    3.7220  -13.4660  -27.5740 H   0  0  0  0  0  0  0  0  0  0  0  0
    4.1060  -10.2270  -28.2390 C   0  0  0  0  0  0  0  0  0  0  0  0
    4.4720   -9.7250  -26.9840 C   0  0  0  0  0  3  0  0  0  0  0  0
    4.6790   -8.3540  -26.8280 C   0  0  0  0  0  3  0  0  0  0  0  0
    4.4920   -7.5010  -27.9150 C   0  0  0  0  0  0  0  0  0  0  0  0
    4.7180   -6.1890  -27.7510 F   0  0  0  0  0  0  0  0  0  0  0  0
    4.0670   -7.9990  -29.1480 C   0  0  0  0  0  0  0  0  0  0  0  0
    3.8680   -9.3660  -29.3180 C   0  0  0  0  0  3  0  0  0  0  0  0
    3.8600   -7.1390  -30.1900 O   0  0  0  0  0  0  0  0  0  0  0  0
    3.2780   -7.5710  -30.8470 H   0  0  0  0  0  0  0  0  0  0  0  0
    0.3200   -8.6860  -24.1090 N   0  0  0  0  0  0  0  0  0  0  0  0
    1.2690   -8.5910  -23.7540 H   0  0  0  0  0  0  0  0  0  0  0  0
   -0.1850   -7.4250  -24.3160 C   0  0  0  0  0  0  0  0  0  0  0  0
   -0.5420   -6.8430  -23.1600 N   0  0  0  0  0  0  0  0  0  0  0  0
   -0.8350   -5.5480  -23.2090 C   0  0  0  0  0  3  0  0  0  0  0  0
   -0.7720   -4.7730  -24.2960 N   0  0  0  0  0  0  0  0  0  0  0  0
   -0.4700   -5.3630  -25.4740 C   0  0  0  0  0  0  0  0  0  0  0  0
   -0.3480   -4.6290  -26.6710 C   0  0  0  0  0  0  0  0  0  0  0  0
   -0.1300   -5.2630  -27.9080 C   0  0  0  0  0  3  0  0  0  0  0  0
   -0.0110   -6.6400  -27.9790 C   0  0  0  0  0  3  0  0  0  0  0  0
   -0.0590   -7.3750  -26.8030 C   0  0  0  0  0  3  0  0  0  0  0  0
   -0.2390   -6.7490  -25.5450 C   0  0  0  0  0  0  0  0  0  0  0  0
   -0.3590   -3.1360  -26.7100 C   0  0  0  0  0  0  0  0  0  0  0  0
   -1.2290   -2.4700  -25.9000 N   0  0  0  0  0  0  0  0  0  0  0  0
    0.4250   -2.5260  -27.4320 O   0  0  0  0  0  0  0  0  0  0  0  0
   -1.2380   -1.4610  -25.8980 H   0  0  0  0  0  0  0  0  0  0  0  0
   -1.8130   -2.9740  -25.2370 H   0  0  0  0  0  0  0  0  0  0  0  0
  2  1  1  1  0  0  0
  2 22  1  0  0  0  0
  3  2  1  0  0  0  0
  3  4  1  0  0  0  0
  4  5  2  0  0  0  0
  6  5  1  0  0  0  0
  7  8  1  0  0  0  0
  7  6  2  0  0  0  0
  8  3  2  0  0  0  0
  9  7  1  0  0  0  0
 10 13  1  0  0  0  0
 10  9  1  0  0  0  0
 11 10  2  0  0  0  0
 12  9  1  0  0  0  0
 13 14  1  0  0  0  0
 14 15  2  0  0  0  0
 16 17  1  0  0  0  0
 16 15  1  0  0  0  0
 18 16  2  0  0  0  0
 19 18  1  0  0  0  0
 19 13  2  0  0  0  0
 20 18  1  0  0  0  0
 21 20  1  0  0  0  0
 22 23  1  0  0  0  0
 24 22  1  0  0  0  0
 24 25  1  0  0  0  0
 26 25  2  0  0  0  0
 27 26  1  0  0  0  0
 28 27  2  0  0  0  0
 29 28  1  0  0  0  0
 30 29  2  0  0  0  0
 31 30  1  0  0  0  0
 31 32  2  0  0  0  0
 32 33  1  0  0  0  0
 33 28  1  0  0  0  0
 33 24  2  0  0  0  0
 34 29  1  0  0  0  0
 34 35  1  0  0  0  0
 35 37  1  0  0  0  0
 35 38  1  0  0  0  0
 36 34  2  0  0  0  0
M  END
>  <minimizedAffinity>
-9.34099293

$$$$
