
 OpenBabel10152419303D

 38 41  0  0  1  0  0  0  0  0999 V2000
    2.2540   -8.3070  -24.1930 C   0  0  0  0  0  1  0  0  0  0  0  0
    2.2000   -9.3680  -25.3000 C   0  0  2  0  0  3  0  0  0  0  0  0
    2.7920   -8.7800  -26.5750 C   0  0  0  0  0  0  0  0  0  0  0  0
    3.6550   -9.5710  -27.3490 C   0  0  0  0  0  3  0  0  0  0  0  0
    4.1970   -9.0770  -28.5330 C   0  0  0  0  0  3  0  0  0  0  0  0
    3.8650   -7.7950  -28.9740 C   0  0  0  0  0  3  0  0  0  0  0  0
    2.9860   -6.9960  -28.2440 C   0  0  0  0  0  0  0  0  0  0  0  0
    2.5130   -7.4710  -27.0130 C   0  0  0  0  0  3  0  0  0  0  0  0
    2.5440   -5.7200  -28.6440 N   0  0  0  0  0  0  0  0  0  0  0  0
    1.3660   -5.0380  -28.4440 C   0  0  0  0  0  0  0  0  0  0  0  0
    1.1340   -4.0040  -29.0690 O   0  0  0  0  0  0  0  0  0  0  0  0
    3.1960   -5.1700  -29.1930 H   0  0  0  0  0  0  0  0  0  0  0  0
    0.3840   -5.4780  -27.4390 C   0  0  0  0  0  0  0  0  0  0  0  0
   -0.3970   -6.6080  -27.7120 C   0  0  0  0  0  3  0  0  0  0  0  0
   -1.2830   -7.0790  -26.7420 C   0  0  0  0  0  3  0  0  0  0  0  0
   -1.3980   -6.4030  -25.5270 C   0  0  0  0  0  0  0  0  0  0  0  0
   -2.2380   -6.8850  -24.5990 F   0  0  0  0  0  0  0  0  0  0  0  0
   -0.6630   -5.2410  -25.2850 C   0  0  0  0  0  0  0  0  0  0  0  0
    0.2310   -4.7680  -26.2410 C   0  0  0  0  0  3  0  0  0  0  0  0
   -0.8160   -4.5790  -24.0990 O   0  0  0  0  0  0  0  0  0  0  0  0
   -0.5050   -3.6590  -24.2080 H   0  0  0  0  0  0  0  0  0  0  0  0
    0.8300   -9.8850  -25.3930 N   0  0  0  0  0  0  0  0  0  0  0  0
    0.5260  -10.0930  -26.3410 H   0  0  0  0  0  0  0  0  0  0  0  0
    0.2090  -10.7680  -24.5420 C   0  0  0  0  0  0  0  0  0  0  0  0
    0.5490  -12.0370  -24.8200 N   0  0  0  0  0  0  0  0  0  0  0  0
    0.1900  -12.9590  -23.9310 C   0  0  0  0  0  3  0  0  0  0  0  0
   -0.4450  -12.7280  -22.7790 N   0  0  0  0  0  0  0  0  0  0  0  0
   -0.8410  -11.4610  -22.5200 C   0  0  0  0  0  0  0  0  0  0  0  0
   -1.4890  -11.1100  -21.3190 C   0  0  0  0  0  0  0  0  0  0  0  0
   -1.9850   -9.8110  -21.1000 C   0  0  0  0  0  3  0  0  0  0  0  0
   -1.8310   -8.8300  -22.0640 C   0  0  0  0  0  3  0  0  0  0  0  0
   -1.1350   -9.1370  -23.2240 C   0  0  0  0  0  3  0  0  0  0  0  0
   -0.5960  -10.4290  -23.4430 C   0  0  0  0  0  0  0  0  0  0  0  0
   -1.6280  -12.0500  -20.1680 C   0  0  0  0  0  0  0  0  0  0  0  0
   -0.5100  -12.6680  -19.6930 N   0  0  0  0  0  0  0  0  0  0  0  0
   -2.7220  -12.2310  -19.6390 O   0  0  0  0  0  0  0  0  0  0  0  0
   -0.5800  -13.2910  -18.9030 H   0  0  0  0  0  0  0  0  0  0  0  0
    0.4070  -12.4460  -20.0730 H   0  0  0  0  0  0  0  0  0  0  0  0
  2  1  1  1  0  0  0
  3  2  1  0  0  0  0
  4  3  2  0  0  0  0
  5  4  1  0  0  0  0
  6  5  2  0  0  0  0
  6  7  1  0  0  0  0
  7  8  2  0  0  0  0
  8  3  1  0  0  0  0
  9 10  1  0  0  0  0
  9  7  1  0  0  0  0
 10 13  1  0  0  0  0
 11 10  2  0  0  0  0
 12  9  1  0  0  0  0
 13 19  1  0  0  0  0
 14 13  2  0  0  0  0
 14 15  1  0  0  0  0
 15 16  2  0  0  0  0
 16 18  1  0  0  0  0
 16 17  1  0  0  0  0
 18 20  1  0  0  0  0
 19 18  2  0  0  0  0
 21 20  1  0  0  0  0
 22  2  1  0  0  0  0
 22 24  1  0  0  0  0
 23 22  1  0  0  0  0
 24 33  1  0  0  0  0
 25 24  2  0  0  0  0
 25 26  1  0  0  0  0
 26 27  2  0  0  0  0
 27 28  1  0  0  0  0
 28 29  1  0  0  0  0
 29 30  2  0  0  0  0
 29 34  1  0  0  0  0
 31 30  1  0  0  0  0
 32 31  2  0  0  0  0
 33 32  1  0  0  0  0
 33 28  2  0  0  0  0
 34 35  1  0  0  0  0
 34 36  2  0  0  0  0
 35 37  1  0  0  0  0
 38 35  1  0  0  0  0
M  END
>  <minimizedAffinity>
-10.0646477

$$$$
