
 OpenBabel10152419303D

 38 41  0  0  1  0  0  0  0  0999 V2000
   -0.5420   -5.0790  -26.2810 C   0  0  0  0  0  1  0  0  0  0  0  0
   -0.2340   -6.3550  -25.4860 C   0  0  2  0  0  3  0  0  0  0  0  0
    1.1010   -6.9180  -25.9570 C   0  0  0  0  0  0  0  0  0  0  0  0
    1.7350   -7.8990  -25.1800 C   0  0  0  0  0  3  0  0  0  0  0  0
    2.9440   -8.4540  -25.5900 C   0  0  0  0  0  3  0  0  0  0  0  0
    3.5260   -8.0560  -26.7940 C   0  0  0  0  0  3  0  0  0  0  0  0
    2.9060   -7.1060  -27.6050 C   0  0  0  0  0  0  0  0  0  0  0  0
    1.7320   -6.4940  -27.1420 C   0  0  0  0  0  3  0  0  0  0  0  0
    3.3830   -6.6940  -28.8640 N   0  0  0  0  0  0  0  0  0  0  0  0
    3.9480   -7.3790  -29.9150 C   0  0  0  0  0  0  0  0  0  0  0  0
    4.4760   -6.7670  -30.8420 O   0  0  0  0  0  0  0  0  0  0  0  0
    3.3160   -5.7030  -29.0670 H   0  0  0  0  0  0  0  0  0  0  0  0
    3.8810   -8.8480  -30.0010 C   0  0  0  0  0  0  0  0  0  0  0  0
    3.3820   -9.4310  -31.1720 C   0  0  0  0  0  3  0  0  0  0  0  0
    3.3770  -10.8210  -31.2970 C   0  0  0  0  0  3  0  0  0  0  0  0
    3.8440  -11.6090  -30.2460 C   0  0  0  0  0  0  0  0  0  0  0  0
    3.8530  -12.9420  -30.3950 F   0  0  0  0  0  0  0  0  0  0  0  0
    4.2830  -11.0240  -29.0560 C   0  0  0  0  0  0  0  0  0  0  0  0
    4.3020   -9.6390  -28.9240 C   0  0  0  0  0  3  0  0  0  0  0  0
    4.7060  -11.8190  -28.0280 O   0  0  0  0  0  0  0  0  0  0  0  0
    4.6670  -11.3090  -27.1950 H   0  0  0  0  0  0  0  0  0  0  0  0
   -1.3900   -7.2540  -25.5710 N   0  0  0  0  0  0  0  0  0  0  0  0
   -1.9400   -7.1470  -26.4200 H   0  0  0  0  0  0  0  0  0  0  0  0
   -1.4560   -8.5710  -25.1830 C   0  0  0  0  0  0  0  0  0  0  0  0
   -1.3300   -9.3980  -26.2330 N   0  0  0  0  0  0  0  0  0  0  0  0
   -1.1550  -10.6870  -25.9580 C   0  0  0  0  0  3  0  0  0  0  0  0
   -1.0610  -11.2220  -24.7380 N   0  0  0  0  0  0  0  0  0  0  0  0
   -1.2460  -10.4040  -23.6760 C   0  0  0  0  0  0  0  0  0  0  0  0
   -1.1360  -10.8630  -22.3490 C   0  0  0  0  0  0  0  0  0  0  0  0
   -1.4250  -10.0290  -21.2520 C   0  0  0  0  0  3  0  0  0  0  0  0
   -1.8120   -8.7160  -21.4530 C   0  0  0  0  0  3  0  0  0  0  0  0
   -1.8590   -8.2240  -22.7500 C   0  0  0  0  0  3  0  0  0  0  0  0
   -1.5340   -9.0400  -23.8620 C   0  0  0  0  0  0  0  0  0  0  0  0
   -0.6340  -12.2250  -22.0010 C   0  0  0  0  0  0  0  0  0  0  0  0
    0.5400  -12.6460  -22.5500 N   0  0  0  0  0  0  0  0  0  0  0  0
   -1.2510  -12.9340  -21.2100 O   0  0  0  0  0  0  0  0  0  0  0  0
    0.9060  -13.5560  -22.3110 H   0  0  0  0  0  0  0  0  0  0  0  0
    1.0950  -12.0230  -23.1320 H   0  0  0  0  0  0  0  0  0  0  0  0
  2  1  1  6  0  0  0
  3  2  1  0  0  0  0
  3  4  1  0  0  0  0
  5  4  2  0  0  0  0
  6  5  1  0  0  0  0
  7  8  1  0  0  0  0
  7  6  2  0  0  0  0
  8  3  2  0  0  0  0
  9  7  1  0  0  0  0
 10  9  1  0  0  0  0
 11 10  2  0  0  0  0
 12  9  1  0  0  0  0
 13 10  1  0  0  0  0
 13 19  1  0  0  0  0
 14 13  2  0  0  0  0
 15 14  1  0  0  0  0
 15 16  2  0  0  0  0
 16 18  1  0  0  0  0
 17 16  1  0  0  0  0
 18 19  2  0  0  0  0
 18 20  1  0  0  0  0
 20 21  1  0  0  0  0
 22  2  1  0  0  0  0
 22 24  1  0  0  0  0
 23 22  1  0  0  0  0
 24 33  1  0  0  0  0
 25 26  1  0  0  0  0
 25 24  2  0  0  0  0
 26 27  2  0  0  0  0
 27 28  1  0  0  0  0
 28 29  1  0  0  0  0
 29 34  1  0  0  0  0
 29 30  2  0  0  0  0
 31 30  1  0  0  0  0
 32 31  2  0  0  0  0
 33 28  2  0  0  0  0
 33 32  1  0  0  0  0
 34 36  2  0  0  0  0
 35 37  1  0  0  0  0
 35 34  1  0  0  0  0
 38 35  1  0  0  0  0
M  END
>  <minimizedAffinity>
-9.41073895

$$$$
