
 OpenBabel10152419303D

 38 41  0  0  1  0  0  0  0  0999 V2000
    2.2370  -10.6450  -23.4310 C   0  0  0  0  0  1  0  0  0  0  0  0
    2.1450  -11.9810  -24.1790 C   0  0  2  0  0  3  0  0  0  0  0  0
    2.5560  -11.7630  -25.6300 C   0  0  0  0  0  0  0  0  0  0  0  0
    2.1200  -12.6740  -26.6040 C   0  0  0  0  0  3  0  0  0  0  0  0
    2.4550  -12.4940  -27.9430 C   0  0  0  0  0  3  0  0  0  0  0  0
    3.2110  -11.3880  -28.3330 C   0  0  0  0  0  3  0  0  0  0  0  0
    3.6340  -10.4470  -27.3950 C   0  0  0  0  0  0  0  0  0  0  0  0
    3.3610  -10.6830  -26.0400 C   0  0  0  0  0  3  0  0  0  0  0  0
    4.3420   -9.2700  -27.7050 N   0  0  0  0  0  0  0  0  0  0  0  0
    3.9730   -7.9450  -27.7400 C   0  0  0  0  0  0  0  0  0  0  0  0
    4.7210   -7.1060  -28.2410 O   0  0  0  0  0  0  0  0  0  0  0  0
    5.3160   -9.3850  -27.9610 H   0  0  0  0  0  0  0  0  0  0  0  0
    2.7180   -7.4780  -27.1270 C   0  0  0  0  0  0  0  0  0  0  0  0
    2.4460   -7.8310  -25.7990 C   0  0  0  0  0  3  0  0  0  0  0  0
    1.2960   -7.3390  -25.1820 C   0  0  0  0  0  3  0  0  0  0  0  0
    0.4190   -6.5280  -25.9020 C   0  0  0  0  0  0  0  0  0  0  0  0
   -0.6690   -6.0460  -25.2840 F   0  0  0  0  0  0  0  0  0  0  0  0
    0.6630   -6.2310  -27.2440 C   0  0  0  0  0  0  0  0  0  0  0  0
    1.8130   -6.7060  -27.8680 C   0  0  0  0  0  3  0  0  0  0  0  0
   -0.2260   -5.4590  -27.9390 O   0  0  0  0  0  0  0  0  0  0  0  0
   -0.0970   -5.6090  -28.8960 H   0  0  0  0  0  0  0  0  0  0  0  0
    0.8140  -12.5570  -23.9560 N   0  0  0  0  0  0  0  0  0  0  0  0
    0.8160  -13.5600  -23.7900 H   0  0  0  0  0  0  0  0  0  0  0  0
   -0.2260  -12.0090  -23.2430 C   0  0  0  0  0  0  0  0  0  0  0  0
   -0.3580  -12.5930  -22.0410 N   0  0  0  0  0  0  0  0  0  0  0  0
   -1.1800  -12.0040  -21.1790 C   0  0  0  0  0  3  0  0  0  0  0  0
   -1.8550  -10.8700  -21.3910 N   0  0  0  0  0  0  0  0  0  0  0  0
   -1.7720  -10.3080  -22.6190 C   0  0  0  0  0  0  0  0  0  0  0  0
   -2.4200   -9.0970  -22.9330 C   0  0  0  0  0  0  0  0  0  0  0  0
   -2.4080   -8.5710  -24.2380 C   0  0  0  0  0  3  0  0  0  0  0  0
   -1.7380   -9.2290  -25.2540 C   0  0  0  0  0  3  0  0  0  0  0  0
   -1.0360  -10.3860  -24.9500 C   0  0  0  0  0  3  0  0  0  0  0  0
   -1.0050  -10.9090  -23.6340 C   0  0  0  0  0  0  0  0  0  0  0  0
   -3.0910   -8.2470  -21.9070 C   0  0  0  0  0  0  0  0  0  0  0  0
   -2.3240   -7.6540  -20.9490 N   0  0  0  0  0  0  0  0  0  0  0  0
   -4.3050   -8.0590  -21.9490 O   0  0  0  0  0  0  0  0  0  0  0  0
   -2.7570   -7.0590  -20.2580 H   0  0  0  0  0  0  0  0  0  0  0  0
   -1.3100   -7.7360  -20.9700 H   0  0  0  0  0  0  0  0  0  0  0  0
  2 22  1  0  0  0  0
  2  1  1  1  0  0  0
  3  2  1  0  0  0  0
  4  3  2  0  0  0  0
  5  4  1  0  0  0  0
  6  5  2  0  0  0  0
  6  7  1  0  0  0  0
  7  8  2  0  0  0  0
  8  3  1  0  0  0  0
  9  7  1  0  0  0  0
 10  9  1  0  0  0  0
 10 13  1  0  0  0  0
 11 10  2  0  0  0  0
 12  9  1  0  0  0  0
 13 14  1  0  0  0  0
 14 15  2  0  0  0  0
 16 17  1  0  0  0  0
 16 15  1  0  0  0  0
 18 16  2  0  0  0  0
 19 18  1  0  0  0  0
 19 13  2  0  0  0  0
 20 18  1  0  0  0  0
 21 20  1  0  0  0  0
 22 23  1  0  0  0  0
 22 24  1  0  0  0  0
 24 25  1  0  0  0  0
 25 26  2  0  0  0  0
 27 26  1  0  0  0  0
 28 27  2  0  0  0  0
 29 28  1  0  0  0  0
 29 34  1  0  0  0  0
 30 29  2  0  0  0  0
 31 32  2  0  0  0  0
 31 30  1  0  0  0  0
 32 33  1  0  0  0  0
 33 24  2  0  0  0  0
 33 28  1  0  0  0  0
 34 35  1  0  0  0  0
 35 37  1  0  0  0  0
 36 34  2  0  0  0  0
 38 35  1  0  0  0  0
M  END
>  <minimizedAffinity>
-9.55823231

$$$$
