REMARK  Name = 
REMARK  8 active torsions:
REMARK  status: ('A' for Active; 'I' for Inactive)
REMARK    1  A    between atoms: C_1  and  C_2
REMARK    2  A    between atoms: C_2  and  N_3
REMARK    3  A    between atoms: C_2  and  C_17
REMARK    4  A    between atoms: N_3  and  C_4
REMARK    5  A    between atoms: C_9  and  C_10
REMARK    6  A    between atoms: C_21  and  N_22
REMARK    7  A    between atoms: C_23  and  C_25
REMARK    8  A    between atoms: C_30  and  O_31
REMARK                            x       y       z     vdW  Elec       q    Type
REMARK                         _______ _______ _______ _____ _____    ______ ____
ROOT
ATOM      1  C   UNL     1       1.333  -0.023  -0.165  0.00  0.00    +0.033 C 
ATOM      2  C   UNL     1       0.505   0.502  -1.345  0.00  0.00    +0.099 C 
ENDROOT
BRANCH   2   3
ATOM      3  C   UNL     1      -0.958   0.579  -0.924  0.00  0.00    -0.026 A 
ATOM      4  C   UNL     1      -1.496   1.824  -0.566  0.00  0.00    +0.005 A 
ATOM      5  C   UNL     1      -2.834   1.938  -0.199  0.00  0.00    +0.002 A 
ATOM      6  C   UNL     1      -3.661   0.814  -0.208  0.00  0.00    +0.023 A 
ATOM      7  C   UNL     1      -3.165  -0.432  -0.589  0.00  0.00    +0.034 A 
ATOM      8  C   UNL     1      -1.798  -0.550  -0.876  0.00  0.00    +0.028 A 
BRANCH   7   9
ATOM      9  N   UNL     1      -3.939  -1.604  -0.692  0.00  0.00    -0.281 N 
ATOM     10  C   UNL     1      -5.297  -1.823  -0.722  0.00  0.00    +0.248 C 
ATOM     11  O   UNL     1      -5.744  -2.964  -0.613  0.00  0.00    -0.270 OA
ATOM     12  H   UNL     1      -3.427  -2.477  -0.755  0.00  0.00    +0.155 HD
BRANCH  10  13
ATOM     13  C   UNL     1      -6.249  -0.723  -0.950  0.00  0.00    +0.041 A 
ATOM     14  C   UNL     1      -7.230  -0.471   0.017  0.00  0.00    +0.016 A 
ATOM     15  C   UNL     1      -8.095   0.611  -0.150  0.00  0.00    +0.043 A 
ATOM     16  C   UNL     1      -7.989   1.409  -1.289  0.00  0.00    +0.165 A 
ATOM     17  F   UNL     1      -8.814   2.458  -1.420  0.00  0.00    -0.202 F 
ATOM     18  C   UNL     1      -7.050   1.116  -2.280  0.00  0.00    +0.153 A 
ATOM     19  C   UNL     1      -6.175   0.046  -2.119  0.00  0.00    +0.061 A 
BRANCH  18  20
ATOM     20  O   UNL     1      -6.986   1.894  -3.402  0.00  0.00    -0.504 OA
ATOM     21  H   UNL     1      -6.535   1.393  -4.110  0.00  0.00    +0.292 HD
ENDBRANCH  18  20
ENDBRANCH  10  13
ENDBRANCH   7   9
ENDBRANCH   2   3
BRANCH   2  22
ATOM     22  N   UNL     1       0.803  -0.310  -2.530  0.00  0.00    -0.322 N 
ATOM     23  H   UNL     1       1.490  -1.043  -2.371  0.00  0.00    +0.148 HD
BRANCH  22  24
ATOM     24  C   UNL     1      -0.081  -0.754  -3.484  0.00  0.00    +0.130 A 
ATOM     25  N   UNL     1       0.061  -2.070  -3.710  0.00  0.00    -0.220 NA
ATOM     26  C   UNL     1      -0.881  -2.654  -4.444  0.00  0.00    +0.223 A 
ATOM     27  N   UNL     1      -1.966  -2.056  -4.944  0.00  0.00    -0.235 NA
ATOM     28  C   UNL     1      -2.086  -0.720  -4.770  0.00  0.00    +0.088 A 
ATOM     29  C   UNL     1      -3.207  -0.002  -5.231  0.00  0.00    +0.063 A 
ATOM     30  C   UNL     1      -3.278   1.400  -5.132  0.00  0.00    +0.015 A 
ATOM     31  C   UNL     1      -2.243   2.116  -4.557  0.00  0.00    +0.002 A 
ATOM     32  C   UNL     1      -1.161   1.422  -4.034  0.00  0.00    +0.013 A 
ATOM     33  C   UNL     1      -1.092   0.008  -4.091  0.00  0.00    +0.041 A 
BRANCH  29  34
ATOM     34  C   UNL     1      -4.426  -0.667  -5.779  0.00  0.00    +0.244 C 
ATOM     35  N   UNL     1      -4.338  -1.970  -6.168  0.00  0.00    -0.325 N 
ATOM     36  O   UNL     1      -5.492  -0.060  -5.843  0.00  0.00    -0.270 OA
ATOM     37  H   UNL     1      -5.156  -2.443  -6.522  0.00  0.00    +0.145 HD
ATOM     38  H   UNL     1      -3.479  -2.497  -6.029  0.00  0.00    +0.145 HD
ENDBRANCH  29  34
ENDBRANCH  22  24
ENDBRANCH   2  22
TORSDOF 7
