
 OpenBabel10152419343D

 39 42  0  0  1  0  0  0  0  0999 V2000
   -1.5130   -7.5810  -24.0740 C   0  0  2  0  0  3  0  0  0  0  0  0
   -1.2110   -9.0300  -24.4490 C   0  0  0  0  0  0  0  0  0  0  0  0
   -1.8700   -9.5960  -25.5520 C   0  0  0  0  0  3  0  0  0  0  0  0
   -1.5910  -10.9010  -25.9470 C   0  0  0  0  0  3  0  0  0  0  0  0
   -0.6290  -11.6490  -25.2660 C   0  0  0  0  0  3  0  0  0  0  0  0
    0.0660  -11.1020  -24.1880 C   0  0  0  0  0  0  0  0  0  0  0  0
   -0.2910   -9.8250  -23.7390 C   0  0  0  0  0  3  0  0  0  0  0  0
    1.1160  -11.7430  -23.5010 N   0  0  0  0  0  0  0  0  0  0  0  0
    2.3050  -12.2940  -23.9230 C   0  0  0  0  0  0  0  0  0  0  0  0
    2.9870  -12.9590  -23.1460 O   0  0  0  0  0  0  0  0  0  0  0  0
    1.0170  -11.8190  -22.4950 H   0  0  0  0  0  0  0  0  0  0  0  0
    2.8180  -12.0640  -25.2850 C   0  0  0  0  0  0  0  0  0  0  0  0
    1.9580  -12.2750  -26.3680 C   0  0  0  0  0  3  0  0  0  0  0  0
    2.3950  -11.9780  -27.6600 C   0  0  0  0  0  3  0  0  0  0  0  0
    3.6910  -11.4980  -27.8600 C   0  0  0  0  0  0  0  0  0  0  0  0
    4.2590  -11.0420  -29.6050 Br  0  0  0  0  0  0  0  0  0  0  0  0
    4.5680  -11.3410  -26.7860 C   0  0  0  0  0  3  0  0  0  0  0  0
    4.1340  -11.6350  -25.4920 C   0  0  0  0  0  3  0  0  0  0  0  0
   -0.5100   -6.5940  -24.5020 N   0  0  0  0  0  0  0  0  0  0  0  0
   -0.3040   -5.8740  -23.8160 H   0  0  0  0  0  0  0  0  0  0  0  0
    0.6540   -6.8260  -25.1980 C   0  0  0  0  0  0  0  0  0  0  0  0
    1.4080   -7.7460  -24.5750 N   0  0  0  0  0  0  0  0  0  0  0  0
    2.4450   -8.2250  -25.2550 C   0  0  0  0  0  3  0  0  0  0  0  0
    2.7790   -7.8950  -26.5050 N   0  0  0  0  0  0  0  0  0  0  0  0
    2.0660   -6.9210  -27.1160 C   0  0  0  0  0  0  0  0  0  0  0  0
    2.3380   -6.5160  -28.4380 C   0  0  0  0  0  0  0  0  0  0  0  0
    1.6390   -5.4510  -29.0380 C   0  0  0  0  0  3  0  0  0  0  0  0
    0.6580   -4.7710  -28.3360 C   0  0  0  0  0  3  0  0  0  0  0  0
    0.3420   -5.1870  -27.0500 C   0  0  0  0  0  3  0  0  0  0  0  0
    1.0020   -6.2860  -26.4470 C   0  0  0  0  0  0  0  0  0  0  0  0
    3.3360   -7.2060  -29.3160 C   0  0  0  0  0  0  0  0  0  0  0  0
    4.6210   -7.3230  -28.8780 N   0  0  0  0  0  0  0  0  0  0  0  0
    3.0090   -7.6910  -30.3940 O   0  0  0  0  0  0  0  0  0  0  0  0
    5.2960   -7.8120  -29.4470 H   0  0  0  0  0  0  0  0  0  0  0  0
    4.9050   -6.9360  -27.9820 H   0  0  0  0  0  0  0  0  0  0  0  0
   -1.7060   -7.5170  -22.5450 C   0  0  0  0  0  2  0  0  0  0  0  0
   -3.0240   -8.0880  -22.0270 C   0  0  0  0  0  2  0  0  0  0  0  0
   -1.5670   -9.1220  -20.4340 C   0  0  0  0  0  1  0  0  0  0  0  0
   -2.8350   -9.1290  -21.0750 O   0  0  0  0  0  0  0  0  0  0  0  0
  1 36  1  1  0  0  0
  2  1  1  0  0  0  0
  2  7  1  0  0  0  0
  3  2  2  0  0  0  0
  4  3  1  0  0  0  0
  4  5  2  0  0  0  0
  5  6  1  0  0  0  0
  6  7  2  0  0  0  0
  6  8  1  0  0  0  0
  8 11  1  0  0  0  0
  9  8  1  0  0  0  0
  9 10  2  0  0  0  0
 12  9  1  0  0  0  0
 13 12  2  0  0  0  0
 14 13  1  0  0  0  0
 15 14  2  0  0  0  0
 15 17  1  0  0  0  0
 16 15  1  0  0  0  0
 17 18  2  0  0  0  0
 18 12  1  0  0  0  0
 19  1  1  0  0  0  0
 19 20  1  0  0  0  0
 21 22  1  0  0  0  0
 21 19  1  0  0  0  0
 23 22  2  0  0  0  0
 24 23  1  0  0  0  0
 25 24  2  0  0  0  0
 25 30  1  0  0  0  0
 26 25  1  0  0  0  0
 27 26  2  0  0  0  0
 27 28  1  0  0  0  0
 28 29  2  0  0  0  0
 29 30  1  0  0  0  0
 30 21  2  0  0  0  0
 31 32  1  0  0  0  0
 31 26  1  0  0  0  0
 32 35  1  0  0  0  0
 33 31  2  0  0  0  0
 34 32  1  0  0  0  0
 36 37  1  0  0  0  0
 37 39  1  0  0  0  0
 39 38  1  0  0  0  0
M  END
>  <minimizedAffinity>
-9.2320118

$$$$
