REMARK  Name = 
REMARK  10 active torsions:
REMARK  status: ('A' for Active; 'I' for Inactive)
REMARK    1  A    between atoms: C_1  and  O_2
REMARK    2  A    between atoms: O_2  and  C_3
REMARK    3  A    between atoms: C_3  and  C_4
REMARK    4  A    between atoms: C_4  and  C_5
REMARK    5  A    between atoms: C_5  and  N_6
REMARK    6  A    between atoms: C_5  and  C_20
REMARK    7  A    between atoms: N_6  and  C_7
REMARK    8  A    between atoms: C_12  and  C_13
REMARK    9  A    between atoms: C_24  and  N_25
REMARK   10  A    between atoms: C_26  and  C_28
REMARK                            x       y       z     vdW  Elec       q    Type
REMARK                         _______ _______ _______ _____ _____    ______ ____
ROOT
ATOM      1  C   UNL     1       1.093  -2.461  -0.847  0.00  0.00    +0.104 C 
ENDROOT
BRANCH   1   2
ATOM      2  C   UNL     1       0.341  -3.544  -1.618  0.00  0.00    -0.025 A 
ATOM      3  C   UNL     1      -0.775  -3.178  -2.387  0.00  0.00    +0.005 A 
ATOM      4  C   UNL     1      -1.461  -4.131  -3.133  0.00  0.00    +0.002 A 
ATOM      5  C   UNL     1      -1.024  -5.457  -3.147  0.00  0.00    +0.023 A 
ATOM      6  C   UNL     1       0.101  -5.844  -2.421  0.00  0.00    +0.034 A 
ATOM      7  C   UNL     1       0.725  -4.898  -1.598  0.00  0.00    +0.028 A 
BRANCH   6   8
ATOM      8  N   UNL     1       0.671  -7.132  -2.448  0.00  0.00    -0.281 N 
ATOM      9  C   UNL     1       0.508  -8.205  -3.295  0.00  0.00    +0.248 C 
ATOM     10  O   UNL     1       0.993  -9.297  -3.007  0.00  0.00    -0.270 OA
ATOM     11  H   UNL     1       1.348  -7.341  -1.723  0.00  0.00    +0.155 HD
BRANCH   9  12
ATOM     12  C   UNL     1      -0.197  -8.068  -4.581  0.00  0.00    +0.037 A 
ATOM     13  C   UNL     1      -1.337  -8.847  -4.805  0.00  0.00    +0.014 A 
ATOM     14  C   UNL     1      -2.071  -8.669  -5.979  0.00  0.00    +0.016 A 
ATOM     15  C   UNL     1      -1.647  -7.735  -6.927  0.00  0.00    +0.018 A 
ATOM     16 BR   UNL     1      -2.676  -7.456  -8.488  0.00  0.00    -0.050 Br
ATOM     17  C   UNL     1      -0.479  -6.997  -6.729  0.00  0.00    +0.016 A 
ATOM     18  C   UNL     1       0.257  -7.171  -5.555  0.00  0.00    +0.014 A 
ENDBRANCH   9  12
ENDBRANCH   6   8
ENDBRANCH   1   2
BRANCH   1  19
ATOM     19  N   UNL     1       2.560  -2.533  -0.923  0.00  0.00    -0.322 N 
ATOM     20  H   UNL     1       3.028  -2.614  -0.025  0.00  0.00    +0.148 HD
BRANCH  19  21
ATOM     21  C   UNL     1       3.322  -3.228  -1.833  0.00  0.00    +0.130 A 
ATOM     22  N   UNL     1       4.264  -3.955  -1.211  0.00  0.00    -0.220 NA
ATOM     23  C   UNL     1       4.917  -4.844  -1.953  0.00  0.00    +0.223 A 
ATOM     24  N   UNL     1       4.696  -5.095  -3.246  0.00  0.00    -0.235 NA
ATOM     25  C   UNL     1       3.796  -4.323  -3.897  0.00  0.00    +0.088 A 
ATOM     26  C   UNL     1       3.489  -4.523  -5.257  0.00  0.00    +0.063 A 
ATOM     27  C   UNL     1       2.607  -3.667  -5.944  0.00  0.00    +0.015 A 
ATOM     28  C   UNL     1       2.015  -2.598  -5.292  0.00  0.00    +0.002 A 
ATOM     29  C   UNL     1       2.267  -2.414  -3.940  0.00  0.00    +0.013 A 
ATOM     30  C   UNL     1       3.115  -3.293  -3.221  0.00  0.00    +0.041 A 
BRANCH  26  31
ATOM     31  C   UNL     1       4.022  -5.672  -6.056  0.00  0.00    +0.244 C 
ATOM     32  N   UNL     1       4.864  -6.555  -5.449  0.00  0.00    -0.325 N 
ATOM     33  O   UNL     1       3.688  -5.847  -7.223  0.00  0.00    -0.270 OA
ATOM     34  H   UNL     1       5.206  -7.350  -5.968  0.00  0.00    +0.145 HD
ATOM     35  H   UNL     1       5.141  -6.430  -4.479  0.00  0.00    +0.145 HD
ENDBRANCH  26  31
ENDBRANCH  19  21
ENDBRANCH   1  19
BRANCH   1  36
ATOM     36  C   UNL     1       0.632  -2.518   0.624  0.00  0.00    +0.055 C 
BRANCH  36  37
ATOM     37  C   UNL     1       1.093  -1.354   1.499  0.00  0.00    +0.161 C 
BRANCH  37  39
ATOM     38  C   UNL     1       0.967   0.719   0.307  0.00  0.00    +0.193 C 
ATOM     39  O   UNL     1       0.363  -0.157   1.249  0.00  0.00    -0.383 OA
ENDBRANCH  37  39
ENDBRANCH  36  37
ENDBRANCH   1  36
TORSDOF 9
