REMARK  Name = 
REMARK  11 active torsions:
REMARK  status: ('A' for Active; 'I' for Inactive)
REMARK    1  A    between atoms: C_1  and  O_2
REMARK    2  A    between atoms: O_2  and  C_3
REMARK    3  A    between atoms: C_6  and  C_7
REMARK    4  A    between atoms: N_9  and  C_10
REMARK    5  A    between atoms: C_14  and  C_15
REMARK    6  A    between atoms: C_15  and  C_16
REMARK    7  A    between atoms: C_15  and  N_19
REMARK    8  A    between atoms: C_16  and  C_17
REMARK    9  A    between atoms: C_17  and  O_18
REMARK   10  A    between atoms: N_19  and  C_20
REMARK   11  A    between atoms: C_25  and  C_26
REMARK                            x       y       z     vdW  Elec       q    Type
REMARK                         _______ _______ _______ _____ _____    ______ ____
ROOT
ATOM      1  C   UNL     1       6.494   1.242   2.974  0.00  0.00    +0.104 C 
ENDROOT
BRANCH   1   6
ATOM      2  C   UNL     1       4.625  -1.758   4.480  0.00  0.00    +0.034 A 
ATOM      3  C   UNL     1       5.395  -2.821   4.009  0.00  0.00    +0.023 A 
ATOM      4  C   UNL     1       6.372  -2.600   3.043  0.00  0.00    +0.002 A 
ATOM      5  C   UNL     1       6.659  -1.299   2.625  0.00  0.00    +0.005 A 
ATOM      6  C   UNL     1       5.997  -0.196   3.188  0.00  0.00    -0.025 A 
ATOM      7  C   UNL     1       4.910  -0.451   4.057  0.00  0.00    +0.028 A 
BRANCH   2  10
ATOM      8  C   UNL     1       2.501  -1.411   5.767  0.00  0.00    +0.248 C 
ATOM      9  O   UNL     1       2.123  -1.279   6.929  0.00  0.00    -0.270 OA
ATOM     10  N   UNL     1       3.693  -2.037   5.491  0.00  0.00    -0.281 N 
ATOM     11  H   UNL     1       3.975  -2.701   6.203  0.00  0.00    +0.155 HD
BRANCH   8  15
ATOM     12  C   UNL     1      -0.494  -0.757   2.779  0.00  0.00    +0.120 A 
ATOM     13  C   UNL     1      -0.435   0.055   3.911  0.00  0.00    +0.046 A 
ATOM     14  C   UNL     1       0.589  -0.117   4.846  0.00  0.00    +0.016 A 
ATOM     15  C   UNL     1       1.557  -1.109   4.654  0.00  0.00    +0.037 A 
ATOM     16  C   UNL     1       1.475  -1.942   3.528  0.00  0.00    +0.016 A 
ATOM     17  C   UNL     1       0.451  -1.765   2.591  0.00  0.00    +0.046 A 
BRANCH  12  19
ATOM     18  C   UNL     1      -1.182  -0.457   0.575  0.00  0.00    +0.277 C 
ATOM     19  O   UNL     1      -1.563  -0.566   1.947  0.00  0.00    -0.495 OA
ENDBRANCH  12  19
ENDBRANCH   8  15
ENDBRANCH   2  10
ENDBRANCH   1   6
BRANCH   1  20
ATOM     20  N   UNL     1       6.566   1.620   1.569  0.00  0.00    -0.322 N 
ATOM     21  H   UNL     1       7.428   1.401   1.082  0.00  0.00    +0.148 HD
BRANCH  20  22
ATOM     22  C   UNL     1       5.370   1.819   0.896  0.00  0.00    +0.130 A 
ATOM     23  N   UNL     1       4.398   2.456   1.573  0.00  0.00    -0.220 NA
ATOM     24  C   UNL     1       3.149   2.210   1.191  0.00  0.00    +0.223 A 
ATOM     25  N   UNL     1       2.794   1.294   0.292  0.00  0.00    -0.235 NA
ATOM     26  C   UNL     1       3.783   0.716  -0.418  0.00  0.00    +0.088 A 
ATOM     27  C   UNL     1       3.561  -0.369  -1.265  0.00  0.00    +0.063 A 
ATOM     28  C   UNL     1       4.516  -0.851  -2.176  0.00  0.00    +0.015 A 
ATOM     29  C   UNL     1       5.789  -0.311  -2.167  0.00  0.00    +0.002 A 
ATOM     30  C   UNL     1       6.111   0.595  -1.163  0.00  0.00    +0.013 A 
ATOM     31  C   UNL     1       5.118   1.081  -0.266  0.00  0.00    +0.041 A 
BRANCH  27  32
ATOM     32  C   UNL     1       2.550  -1.349  -0.817  0.00  0.00    +0.244 C 
ATOM     33  N   UNL     1       3.097  -2.340  -0.030  0.00  0.00    -0.325 N 
ATOM     34  O   UNL     1       1.379  -1.311  -1.125  0.00  0.00    -0.270 OA
ATOM     35  H   UNL     1       2.494  -3.047   0.362  0.00  0.00    +0.145 HD
ATOM     36  H   UNL     1       4.075  -2.339   0.237  0.00  0.00    +0.145 HD
ENDBRANCH  27  32
ENDBRANCH  20  22
ENDBRANCH   1  20
BRANCH   1  37
ATOM     37  C   UNL     1       7.856   1.526   3.648  0.00  0.00    +0.055 C 
BRANCH  37  38
ATOM     38  C   UNL     1       9.075   0.745   3.157  0.00  0.00    +0.158 C 
BRANCH  38  39
ATOM     39  O   UNL     1       9.198   0.778   1.738  0.00  0.00    -0.395 OA
ATOM     40  H   UNL     1      10.051   0.356   1.526  0.00  0.00    +0.209 HD
ENDBRANCH  38  39
ENDBRANCH  37  38
ENDBRANCH   1  37
TORSDOF 10
