REMARK  Name = 
REMARK  7 active torsions:
REMARK  status: ('A' for Active; 'I' for Inactive)
REMARK    1  A    between atoms: C_1  and  C_2
REMARK    2  A    between atoms: C_2  and  N_3
REMARK    3  A    between atoms: C_2  and  C_17
REMARK    4  A    between atoms: N_3  and  C_4
REMARK    5  A    between atoms: C_9  and  C_10
REMARK    6  A    between atoms: C_21  and  N_22
REMARK    7  A    between atoms: C_23  and  C_25
REMARK                            x       y       z     vdW  Elec       q    Type
REMARK                         _______ _______ _______ _____ _____    ______ ____
ROOT
ATOM      1  C   UNL     1       1.336  -0.157  -0.026  0.00  0.00    +0.033 C 
ATOM      2  C   UNL     1       0.679   0.542  -1.222  0.00  0.00    +0.099 C 
ENDROOT
BRANCH   2   3
ATOM      3  C   UNL     1      -0.814   0.731  -0.986  0.00  0.00    -0.026 A 
ATOM      4  C   UNL     1      -1.350   2.025  -0.969  0.00  0.00    +0.005 A 
ATOM      5  C   UNL     1      -2.726   2.210  -1.070  0.00  0.00    +0.002 A 
ATOM      6  C   UNL     1      -3.577   1.105  -1.165  0.00  0.00    +0.023 A 
ATOM      7  C   UNL     1      -3.091  -0.183  -1.015  0.00  0.00    +0.034 A 
ATOM      8  C   UNL     1      -1.701  -0.359  -0.916  0.00  0.00    +0.028 A 
BRANCH   7   9
ATOM      9  N   UNL     1      -3.856  -1.346  -1.142  0.00  0.00    -0.285 N 
ATOM     10  C   UNL     1      -5.180  -1.688  -1.153  0.00  0.00    +0.226 C 
ATOM     11  O   UNL     1      -5.436  -2.809  -1.601  0.00  0.00    -0.275 OA
ATOM     12  H   UNL     1      -3.315  -2.177  -1.361  0.00  0.00    +0.155 HD
BRANCH  10  13
ATOM     13  C   UNL     1      -6.302  -0.985  -0.504  0.00  0.00    +0.150 C 
ATOM     14  C   UNL     1      -6.710   0.435  -0.223  0.00  0.00    +0.095 C 
ATOM     15  C   UNL     1      -7.162  -0.232  -1.460  0.00  0.00    +0.261 C 
ATOM     16  F   UNL     1      -6.687   0.215  -2.671  0.00  0.00    -0.205 F 
ATOM     17  F   UNL     1      -8.489  -0.550  -1.625  0.00  0.00    -0.205 F 
ENDBRANCH  10  13
ENDBRANCH   7   9
ENDBRANCH   2   3
BRANCH   2  18
ATOM     18  N   UNL     1       1.050  -0.168  -2.464  0.00  0.00    -0.322 N 
ATOM     19  H   UNL     1       1.771  -0.868  -2.309  0.00  0.00    +0.148 HD
BRANCH  18  20
ATOM     20  C   UNL     1       0.169  -0.701  -3.386  0.00  0.00    +0.130 A 
ATOM     21  N   UNL     1       0.304  -2.031  -3.508  0.00  0.00    -0.220 NA
ATOM     22  C   UNL     1      -0.616  -2.654  -4.242  0.00  0.00    +0.223 A 
ATOM     23  N   UNL     1      -1.671  -2.083  -4.832  0.00  0.00    -0.235 NA
ATOM     24  C   UNL     1      -1.784  -0.736  -4.765  0.00  0.00    +0.088 A 
ATOM     25  C   UNL     1      -2.860  -0.038  -5.353  0.00  0.00    +0.063 A 
ATOM     26  C   UNL     1      -2.925   1.369  -5.323  0.00  0.00    +0.015 A 
ATOM     27  C   UNL     1      -1.912   2.108  -4.734  0.00  0.00    +0.002 A 
ATOM     28  C   UNL     1      -0.858   1.437  -4.129  0.00  0.00    +0.013 A 
ATOM     29  C   UNL     1      -0.812   0.023  -4.086  0.00  0.00    +0.041 A 
BRANCH  25  30
ATOM     30  C   UNL     1      -4.008  -0.717  -6.033  0.00  0.00    +0.244 C 
ATOM     31  N   UNL     1      -4.031  -2.081  -6.063  0.00  0.00    -0.325 N 
ATOM     32  O   UNL     1      -4.916  -0.079  -6.551  0.00  0.00    -0.270 OA
ATOM     33  H   UNL     1      -4.814  -2.548  -6.497  0.00  0.00    +0.145 HD
ATOM     34  H   UNL     1      -3.286  -2.626  -5.643  0.00  0.00    +0.145 HD
ENDBRANCH  25  30
ENDBRANCH  18  20
ENDBRANCH   2  18
TORSDOF 6
