REMARK  Name = 
REMARK  5 active torsions:
REMARK  status: ('A' for Active; 'I' for Inactive)
REMARK    1  A    between atoms: C_2  and  C_4
REMARK    2  A    between atoms: N_10  and  C_11
REMARK    3  A    between atoms: C_11  and  C_12
REMARK    4  A    between atoms: C_16  and  N_17
REMARK    5  A    between atoms: C_18  and  C_20
REMARK                            x       y       z     vdW  Elec       q    Type
REMARK                         _______ _______ _______ _____ _____    ______ ____
ROOT
ATOM      1  C   UNL     1       1.650   6.041   7.128  0.00  0.00    -0.029 A 
ATOM      2  C   UNL     1       1.675   4.794   7.761  0.00  0.00    +0.005 A 
ATOM      3  C   UNL     1       2.445   4.604   8.906  0.00  0.00    +0.002 A 
ATOM      4  C   UNL     1       3.206   5.654   9.429  0.00  0.00    +0.023 A 
ATOM      5  C   UNL     1       3.222   6.898   8.800  0.00  0.00    +0.034 A 
ATOM      6  C   UNL     1       2.430   7.083   7.656  0.00  0.00    +0.028 A 
ENDROOT
BRANCH   5   7
ATOM      7  N   UNL     1       3.934   8.024   9.255  0.00  0.00    -0.281 N 
ATOM      8  C   UNL     1       4.919   8.199  10.196  0.00  0.00    +0.254 C 
ATOM      9  O   UNL     1       5.258   9.335  10.527  0.00  0.00    -0.270 OA
ATOM     10  H   UNL     1       3.683   8.911   8.833  0.00  0.00    +0.155 HD
BRANCH   8  11
ATOM     11  C   UNL     1       5.665   7.080  10.762  0.00  0.00    +0.107 A 
ATOM     12  C   UNL     1       5.599   6.824  12.128  0.00  0.00    +0.140 A 
ATOM     13  F   UNL     1       4.786   7.535  12.921  0.00  0.00    -0.205 F 
ATOM     14  C   UNL     1       6.353   5.799  12.693  0.00  0.00    +0.059 A 
ATOM     15  C   UNL     1       7.192   5.039  11.878  0.00  0.00    +0.046 A 
ATOM     16 CL   UNL     1       8.125   3.769  12.566  0.00  0.00    -0.083 Cl
ATOM     17  C   UNL     1       7.282   5.300  10.512  0.00  0.00    +0.059 A 
ATOM     18  C   UNL     1       6.521   6.328   9.962  0.00  0.00    +0.140 A 
ATOM     19  F   UNL     1       6.634   6.581   8.650  0.00  0.00    -0.205 F 
ENDBRANCH   8  11
ENDBRANCH   5   7
BRANCH   1  20
ATOM     20  C   UNL     1       0.796   6.258   5.901  0.00  0.00    +0.138 C 
BRANCH  20  27
ATOM     21  C   UNL     1       1.010   2.425   1.150  0.00  0.00    +0.063 A 
ATOM     22  C   UNL     1       2.066   3.002   0.427  0.00  0.00    +0.015 A 
ATOM     23  C   UNL     1       2.721   4.106   0.945  0.00  0.00    +0.002 A 
ATOM     24  C   UNL     1       2.316   4.618   2.175  0.00  0.00    +0.013 A 
ATOM     25  C   UNL     1       1.255   4.027   2.915  0.00  0.00    +0.041 A 
ATOM     26  C   UNL     1       0.802   4.498   4.165  0.00  0.00    +0.130 A 
ATOM     27  N   UNL     1       1.396   5.613   4.750  0.00  0.00    -0.324 N 
ATOM     28  N   UNL     1      -0.230   3.927   4.806  0.00  0.00    -0.220 NA
ATOM     29  C   UNL     1      -0.791   2.866   4.225  0.00  0.00    +0.223 A 
ATOM     30  N   UNL     1      -0.421   2.319   3.066  0.00  0.00    -0.235 NA
ATOM     31  C   UNL     1       0.582   2.909   2.393  0.00  0.00    +0.088 A 
ATOM     32  H   UNL     1       2.406   5.644   4.710  0.00  0.00    +0.148 HD
BRANCH  21  34
ATOM     33  N   UNL     1       1.048   0.131   0.432  0.00  0.00    -0.325 N 
ATOM     34  C   UNL     1       0.317   1.283   0.528  0.00  0.00    +0.244 C 
ATOM     35  O   UNL     1      -0.812   1.378   0.068  0.00  0.00    -0.270 OA
ATOM     36  H   UNL     1       0.601  -0.670   0.006  0.00  0.00    +0.145 HD
ATOM     37  H   UNL     1       1.973   0.028   0.822  0.00  0.00    +0.145 HD
ENDBRANCH  21  34
ENDBRANCH  20  27
ENDBRANCH   1  20
TORSDOF 5
