
 OpenBabel10152418383D

 37 40  0  0  0  0  0  0  0  0999 V2000
    2.8990   -8.7740  -26.7880 C   0  0  0  0  0  0  0  0  0  0  0  0
    2.9420   -7.8990  -25.7030 C   0  0  0  0  0  3  0  0  0  0  0  0
    2.3430   -8.2620  -24.5010 C   0  0  0  0  0  3  0  0  0  0  0  0
    1.7380   -9.5130  -24.3740 C   0  0  0  0  0  3  0  0  0  0  0  0
    1.7880  -10.4590  -25.4100 C   0  0  0  0  0  0  0  0  0  0  0  0
    2.3840  -10.0680  -26.6170 C   0  0  0  0  0  3  0  0  0  0  0  0
    2.7650   -7.3650  -28.8660 C   0  0  0  0  0  0  0  0  0  0  0  0
    3.1500   -7.2250  -30.0220 O   0  0  0  0  0  0  0  0  0  0  0  0
    3.3520   -8.2930  -28.0280 N   0  0  0  0  0  0  0  0  0  0  0  0
    4.2590   -8.6070  -28.3550 H   0  0  0  0  0  0  0  0  0  0  0  0
   -0.1220   -4.7410  -27.1090 C   0  0  0  0  0  0  0  0  0  0  0  0
   -0.3040   -6.1290  -27.0770 C   0  0  0  0  0  3  0  0  0  0  0  0
    0.6110   -6.9880  -27.6910 C   0  0  0  0  0  3  0  0  0  0  0  0
    1.7250   -6.4510  -28.3320 C   0  0  0  0  0  0  0  0  0  0  0  0
    1.8730   -5.0620  -28.4370 C   0  0  0  0  0  3  0  0  0  0  0  0
    0.9570   -4.2100  -27.8150 C   0  0  0  0  0  3  0  0  0  0  0  0
   -1.0560   -4.0310  -26.4100 O   0  0  0  0  0  0  0  0  0  0  0  0
   -1.4020   -2.0400  -25.0460 C   0  0  0  0  0  1  0  0  0  0  0  0
   -0.9740   -2.6050  -26.3920 C   0  0  0  0  0  2  0  0  0  0  0  0
    1.1570  -11.8380  -25.2770 C   0  0  0  0  0  2  0  0  0  0  0  0
   -0.2630  -11.8240  -25.5850 N   0  0  0  0  0  0  0  0  0  0  0  0
   -0.6800  -12.6450  -25.9900 H   0  0  0  0  0  0  0  0  0  0  0  0
   -1.0560  -10.8380  -25.0140 C   0  0  0  0  0  0  0  0  0  0  0  0
   -1.2860   -9.7460  -25.7650 N   0  0  0  0  0  0  0  0  0  0  0  0
   -1.7310   -8.6630  -25.1320 C   0  0  0  0  0  3  0  0  0  0  0  0
   -1.8710   -8.5420  -23.8110 N   0  0  0  0  0  0  0  0  0  0  0  0
   -1.6830   -9.6450  -23.0610 C   0  0  0  0  0  0  0  0  0  0  0  0
   -1.7630   -9.6020  -21.6650 C   0  0  0  0  0  0  0  0  0  0  0  0
   -1.6760  -10.7440  -20.8570 C   0  0  0  0  0  3  0  0  0  0  0  0
   -1.4310  -11.9740  -21.4430 C   0  0  0  0  0  3  0  0  0  0  0  0
   -1.2320  -12.0370  -22.8200 C   0  0  0  0  0  3  0  0  0  0  0  0
   -1.3460  -10.8780  -23.6370 C   0  0  0  0  0  0  0  0  0  0  0  0
   -1.8040   -8.3060  -20.9600 C   0  0  0  0  0  0  0  0  0  0  0  0
   -2.6110   -7.3590  -21.5280 N   0  0  0  0  0  0  0  0  0  0  0  0
   -1.0730   -8.0650  -20.0090 O   0  0  0  0  0  0  0  0  0  0  0  0
   -2.6420   -6.4400  -21.1080 H   0  0  0  0  0  0  0  0  0  0  0  0
   -3.1970   -7.5520  -22.3260 H   0  0  0  0  0  0  0  0  0  0  0  0
  1  6  2  0  0  0  0
  1  2  1  0  0  0  0
  2  3  2  0  0  0  0
  3  4  1  0  0  0  0
  5 20  1  0  0  0  0
  5  4  2  0  0  0  0
  6  5  1  0  0  0  0
  7 14  1  0  0  0  0
  7  9  1  0  0  0  0
  8  7  2  0  0  0  0
  9  1  1  0  0  0  0
 10  9  1  0  0  0  0
 11 12  1  0  0  0  0
 11 17  1  0  0  0  0
 13 12  2  0  0  0  0
 14 13  1  0  0  0  0
 15 14  2  0  0  0  0
 15 16  1  0  0  0  0
 16 11  2  0  0  0  0
 17 19  1  0  0  0  0
 19 18  1  0  0  0  0
 21 20  1  0  0  0  0
 21 23  1  0  0  0  0
 22 21  1  0  0  0  0
 23 32  1  0  0  0  0
 24 25  1  0  0  0  0
 24 23  2  0  0  0  0
 25 26  2  0  0  0  0
 26 27  1  0  0  0  0
 27 28  1  0  0  0  0
 28 33  1  0  0  0  0
 28 29  2  0  0  0  0
 30 29  1  0  0  0  0
 31 30  2  0  0  0  0
 32 27  2  0  0  0  0
 32 31  1  0  0  0  0
 33 35  2  0  0  0  0
 34 36  1  0  0  0  0
 34 33  1  0  0  0  0
 37 34  1  0  0  0  0
M  END
>  <minimizedAffinity>
-9.29404354

$$$$

 OpenBabel10152418383D

 37 40  0  0  0  0  0  0  0  0999 V2000
   -1.1010  -10.4250  -23.7330 C   0  0  0  0  0  0  0  0  0  0  0  0
   -1.7870  -10.5660  -24.9380 C   0  0  0  0  0  3  0  0  0  0  0  0
   -1.1380  -11.1110  -26.0410 C   0  0  0  0  0  3  0  0  0  0  0  0
    0.1820  -11.5510  -25.9250 C   0  0  0  0  0  3  0  0  0  0  0  0
    0.8540  -11.5340  -24.6930 C   0  0  0  0  0  0  0  0  0  0  0  0
    0.1860  -10.9680  -23.5980 C   0  0  0  0  0  3  0  0  0  0  0  0
   -1.6670   -8.3540  -22.4240 C   0  0  0  0  0  0  0  0  0  0  0  0
   -2.0760   -7.9110  -21.3560 O   0  0  0  0  0  0  0  0  0  0  0  0
   -1.7340   -9.7050  -22.7050 N   0  0  0  0  0  0  0  0  0  0  0  0
   -2.3800  -10.2050  -22.1050 H   0  0  0  0  0  0  0  0  0  0  0  0
   -0.5130   -5.5280  -25.4220 C   0  0  0  0  0  0  0  0  0  0  0  0
   -1.1360   -6.7320  -25.7760 C   0  0  0  0  0  3  0  0  0  0  0  0
   -1.4710   -7.6800  -24.8050 C   0  0  0  0  0  3  0  0  0  0  0  0
   -1.1910   -7.4120  -23.4660 C   0  0  0  0  0  0  0  0  0  0  0  0
   -0.4980   -6.2470  -23.1130 C   0  0  0  0  0  3  0  0  0  0  0  0
   -0.1710   -5.3020  -24.0890 C   0  0  0  0  0  3  0  0  0  0  0  0
   -0.3070   -4.6700  -26.4640 O   0  0  0  0  0  0  0  0  0  0  0  0
    1.0220   -4.1730  -28.4460 C   0  0  0  0  0  1  0  0  0  0  0  0
    0.1640   -5.1890  -27.7080 C   0  0  0  0  0  2  0  0  0  0  0  0
    2.2830  -12.0360  -24.5450 C   0  0  0  0  0  2  0  0  0  0  0  0
    3.2500  -11.1180  -25.1220 N   0  0  0  0  0  0  0  0  0  0  0  0
    4.0150  -10.7970  -24.5520 H   0  0  0  0  0  0  0  0  0  0  0  0
    3.2920  -10.9810  -26.5030 C   0  0  0  0  0  0  0  0  0  0  0  0
    3.7520  -12.0380  -27.1950 N   0  0  0  0  0  0  0  0  0  0  0  0
    4.1280  -11.8170  -28.4520 C   0  0  0  0  0  3  0  0  0  0  0  0
    4.1790  -10.6240  -29.0460 N   0  0  0  0  0  0  0  0  0  0  0  0
    3.6790   -9.5700  -28.3710 C   0  0  0  0  0  0  0  0  0  0  0  0
    3.7330   -8.2740  -28.8960 C   0  0  0  0  0  0  0  0  0  0  0  0
    3.1330   -7.1710  -28.2730 C   0  0  0  0  0  3  0  0  0  0  0  0
    2.5120   -7.3370  -27.0470 C   0  0  0  0  0  3  0  0  0  0  0  0
    2.5400   -8.5900  -26.4410 C   0  0  0  0  0  3  0  0  0  0  0  0
    3.1280   -9.7110  -27.0900 C   0  0  0  0  0  0  0  0  0  0  0  0
    4.5600   -7.9830  -30.0820 C   0  0  0  0  0  0  0  0  0  0  0  0
    4.8500   -6.6620  -30.2810 N   0  0  0  0  0  0  0  0  0  0  0  0
    4.8570   -8.8510  -30.8910 O   0  0  0  0  0  0  0  0  0  0  0  0
    5.3780   -6.4040  -31.1030 H   0  0  0  0  0  0  0  0  0  0  0  0
    4.5850   -5.9420  -29.6240 H   0  0  0  0  0  0  0  0  0  0  0  0
  1  6  1  0  0  0  0
  1  9  1  0  0  0  0
  2  1  2  0  0  0  0
  3  4  2  0  0  0  0
  3  2  1  0  0  0  0
  4  5  1  0  0  0  0
  5 20  1  0  0  0  0
  5  6  2  0  0  0  0
  7  8  2  0  0  0  0
  9  7  1  0  0  0  0
  9 10  1  0  0  0  0
 11 16  1  0  0  0  0
 12 11  2  0  0  0  0
 12 13  1  0  0  0  0
 13 14  2  0  0  0  0
 14 15  1  0  0  0  0
 14  7  1  0  0  0  0
 16 15  2  0  0  0  0
 17 11  1  0  0  0  0
 18 19  1  0  0  0  0
 19 17  1  0  0  0  0
 21 22  1  0  0  0  0
 21 20  1  0  0  0  0
 23 21  1  0  0  0  0
 24 23  2  0  0  0  0
 25 24  1  0  0  0  0
 26 25  2  0  0  0  0
 26 27  1  0  0  0  0
 27 32  1  0  0  0  0
 28 27  2  0  0  0  0
 28 29  1  0  0  0  0
 29 30  2  0  0  0  0
 30 31  1  0  0  0  0
 32 23  1  0  0  0  0
 32 31  2  0  0  0  0
 33 28  1  0  0  0  0
 34 33  1  0  0  0  0
 34 37  1  0  0  0  0
 35 33  2  0  0  0  0
 36 34  1  0  0  0  0
M  END
>  <minimizedAffinity>
-8.8807621

$$$$

 OpenBabel10152418383D

 37 40  0  0  0  0  0  0  0  0999 V2000
   -1.0800  -10.3260  -24.0670 C   0  0  0  0  0  0  0  0  0  0  0  0
   -2.0820  -10.4150  -25.0320 C   0  0  0  0  0  3  0  0  0  0  0  0
   -1.7760  -10.8940  -26.3010 C   0  0  0  0  0  3  0  0  0  0  0  0
   -0.4790  -11.3220  -26.5900 C   0  0  0  0  0  3  0  0  0  0  0  0
    0.5170  -11.3580  -25.6020 C   0  0  0  0  0  0  0  0  0  0  0  0
    0.1910  -10.8580  -24.3340 C   0  0  0  0  0  3  0  0  0  0  0  0
   -1.2470   -8.3310  -22.5460 C   0  0  0  0  0  0  0  0  0  0  0  0
   -1.3320   -7.9470  -21.3840 O   0  0  0  0  0  0  0  0  0  0  0  0
   -1.3920   -9.6670  -22.8650 N   0  0  0  0  0  0  0  0  0  0  0  0
   -1.8390  -10.2050  -22.1320 H   0  0  0  0  0  0  0  0  0  0  0  0
   -0.5800   -5.5570  -25.7340 C   0  0  0  0  0  0  0  0  0  0  0  0
   -0.0800   -5.3040  -24.4500 C   0  0  0  0  0  3  0  0  0  0  0  0
   -0.3360   -6.1830  -23.3940 C   0  0  0  0  0  3  0  0  0  0  0  0
   -1.0890   -7.3320  -23.6310 C   0  0  0  0  0  0  0  0  0  0  0  0
   -1.6590   -7.5500  -24.8920 C   0  0  0  0  0  3  0  0  0  0  0  0
   -1.3940   -6.6700  -25.9440 C   0  0  0  0  0  3  0  0  0  0  0  0
   -0.1950   -4.6500  -26.6800 O   0  0  0  0  0  0  0  0  0  0  0  0
    1.6450   -4.5540  -28.2760 C   0  0  0  0  0  1  0  0  0  0  0  0
    0.2740   -5.1220  -27.9440 C   0  0  0  0  0  2  0  0  0  0  0  0
    1.9280  -11.8480  -25.8950 C   0  0  0  0  0  2  0  0  0  0  0  0
    2.9400  -10.9890  -25.3050 N   0  0  0  0  0  0  0  0  0  0  0  0
    3.4790  -11.3360  -24.5280 H   0  0  0  0  0  0  0  0  0  0  0  0
    3.3670   -9.8790  -26.0210 C   0  0  0  0  0  0  0  0  0  0  0  0
    2.9540   -8.6810  -25.5700 N   0  0  0  0  0  0  0  0  0  0  0  0
    3.0480   -7.6560  -26.4120 C   0  0  0  0  0  3  0  0  0  0  0  0
    3.4220   -7.7360  -27.6900 N   0  0  0  0  0  0  0  0  0  0  0  0
    3.8770   -8.9250  -28.1320 C   0  0  0  0  0  0  0  0  0  0  0  0
    4.2470   -9.1140  -29.4680 C   0  0  0  0  0  0  0  0  0  0  0  0
    4.8200  -10.3020  -29.9430 C   0  0  0  0  0  3  0  0  0  0  0  0
    4.9740  -11.3740  -29.0810 C   0  0  0  0  0  3  0  0  0  0  0  0
    4.5120  -11.2590  -27.7730 C   0  0  0  0  0  3  0  0  0  0  0  0
    3.9530  -10.0430  -27.2900 C   0  0  0  0  0  0  0  0  0  0  0  0
    3.9130   -8.0990  -30.4860 C   0  0  0  0  0  0  0  0  0  0  0  0
    4.4360   -6.8550  -30.2620 N   0  0  0  0  0  0  0  0  0  0  0  0
    3.1260   -8.3290  -31.3930 O   0  0  0  0  0  0  0  0  0  0  0  0
    4.2020   -6.1130  -30.9070 H   0  0  0  0  0  0  0  0  0  0  0  0
    5.0680   -6.6610  -29.4990 H   0  0  0  0  0  0  0  0  0  0  0  0
  1  9  1  0  0  0  0
  2  1  2  0  0  0  0
  3  2  1  0  0  0  0
  4  3  2  0  0  0  0
  4  5  1  0  0  0  0
  5  6  2  0  0  0  0
  6  1  1  0  0  0  0
  7  8  2  0  0  0  0
  9  7  1  0  0  0  0
  9 10  1  0  0  0  0
 11 12  1  0  0  0  0
 12 13  2  0  0  0  0
 14 13  1  0  0  0  0
 14  7  1  0  0  0  0
 15 14  2  0  0  0  0
 16 11  2  0  0  0  0
 16 15  1  0  0  0  0
 17 11  1  0  0  0  0
 18 19  1  0  0  0  0
 19 17  1  0  0  0  0
 20  5  1  0  0  0  0
 20 21  1  0  0  0  0
 21 22  1  0  0  0  0
 23 24  1  0  0  0  0
 23 21  1  0  0  0  0
 25 24  2  0  0  0  0
 26 25  1  0  0  0  0
 27 26  2  0  0  0  0
 27 32  1  0  0  0  0
 28 27  1  0  0  0  0
 29 28  2  0  0  0  0
 29 30  1  0  0  0  0
 30 31  2  0  0  0  0
 31 32  1  0  0  0  0
 32 23  2  0  0  0  0
 33 34  1  0  0  0  0
 33 28  1  0  0  0  0
 34 37  1  0  0  0  0
 35 33  2  0  0  0  0
 36 34  1  0  0  0  0
M  END
>  <minimizedAffinity>
-8.62986851

$$$$

 OpenBabel10152418383D

 37 40  0  0  0  0  0  0  0  0999 V2000
    2.2580   -6.2370  -28.7210 C   0  0  0  0  0  0  0  0  0  0  0  0
    1.7920   -4.9480  -28.4680 C   0  0  0  0  0  3  0  0  0  0  0  0
    0.8430   -4.7420  -27.4720 C   0  0  0  0  0  3  0  0  0  0  0  0
    0.3930   -5.8180  -26.7050 C   0  0  0  0  0  3  0  0  0  0  0  0
    0.9370   -7.1030  -26.8570 C   0  0  0  0  0  0  0  0  0  0  0  0
    1.8810   -7.2910  -27.8750 C   0  0  0  0  0  3  0  0  0  0  0  0
    4.1660   -7.2510  -30.0070 C   0  0  0  0  0  0  0  0  0  0  0  0
    4.9200   -7.1270  -30.9670 O   0  0  0  0  0  0  0  0  0  0  0  0
    3.0720   -6.4230  -29.8530 N   0  0  0  0  0  0  0  0  0  0  0  0
    2.8140   -5.9410  -30.7060 H   0  0  0  0  0  0  0  0  0  0  0  0
    4.5510  -10.4350  -27.1760 C   0  0  0  0  0  0  0  0  0  0  0  0
    4.9740   -9.1390  -26.8560 C   0  0  0  0  0  3  0  0  0  0  0  0
    4.8950   -8.1060  -27.7940 C   0  0  0  0  0  3  0  0  0  0  0  0
    4.3760   -8.3720  -29.0590 C   0  0  0  0  0  0  0  0  0  0  0  0
    4.0240   -9.6820  -29.4120 C   0  0  0  0  0  3  0  0  0  0  0  0
    4.1010  -10.7080  -28.4670 C   0  0  0  0  0  3  0  0  0  0  0  0
    4.6220  -11.3250  -26.1420 O   0  0  0  0  0  0  0  0  0  0  0  0
    2.4260  -11.1190  -25.1050 C   0  0  0  0  0  1  0  0  0  0  0  0
    3.4460  -12.0380  -25.7580 C   0  0  0  0  0  2  0  0  0  0  0  0
    0.4770   -8.2810  -26.0090 C   0  0  0  0  0  2  0  0  0  0  0  0
   -0.9430   -8.5480  -26.1640 N   0  0  0  0  0  0  0  0  0  0  0  0
   -1.2770   -8.8980  -27.0460 H   0  0  0  0  0  0  0  0  0  0  0  0
   -1.7280   -8.6420  -25.0230 C   0  0  0  0  0  0  0  0  0  0  0  0
   -2.3730   -7.5230  -24.6480 N   0  0  0  0  0  0  0  0  0  0  0  0
   -2.8340   -7.4840  -23.4010 C   0  0  0  0  0  3  0  0  0  0  0  0
   -2.6250   -8.4150  -22.4690 N   0  0  0  0  0  0  0  0  0  0  0  0
   -2.0180   -9.5550  -22.8530 C   0  0  0  0  0  0  0  0  0  0  0  0
   -1.7150  -10.5660  -21.9350 C   0  0  0  0  0  0  0  0  0  0  0  0
   -1.1790  -11.8060  -22.3110 C   0  0  0  0  0  3  0  0  0  0  0  0
   -0.8630  -12.0350  -23.6390 C   0  0  0  0  0  3  0  0  0  0  0  0
   -1.0440  -11.0090  -24.5620 C   0  0  0  0  0  3  0  0  0  0  0  0
   -1.6110   -9.7620  -24.1790 C   0  0  0  0  0  0  0  0  0  0  0  0
   -1.8200  -10.3140  -20.4850 C   0  0  0  0  0  0  0  0  0  0  0  0
   -1.2910   -9.1260  -20.0600 N   0  0  0  0  0  0  0  0  0  0  0  0
   -2.2390  -11.1630  -19.7110 O   0  0  0  0  0  0  0  0  0  0  0  0
   -1.3000   -8.9240  -19.0700 H   0  0  0  0  0  0  0  0  0  0  0  0
   -0.9250   -8.4350  -20.6990 H   0  0  0  0  0  0  0  0  0  0  0  0
  1  2  2  0  0  0  0
  1  6  1  0  0  0  0
  2  3  1  0  0  0  0
  3  4  2  0  0  0  0
  5  4  1  0  0  0  0
  5 20  1  0  0  0  0
  6  5  2  0  0  0  0
  7  9  1  0  0  0  0
  7 14  1  0  0  0  0
  8  7  2  0  0  0  0
  9  1  1  0  0  0  0
 10  9  1  0  0  0  0
 11 12  1  0  0  0  0
 11 17  1  0  0  0  0
 13 12  2  0  0  0  0
 14 13  1  0  0  0  0
 15 14  2  0  0  0  0
 15 16  1  0  0  0  0
 16 11  2  0  0  0  0
 17 19  1  0  0  0  0
 19 18  1  0  0  0  0
 21 20  1  0  0  0  0
 21 23  1  0  0  0  0
 22 21  1  0  0  0  0
 23 24  2  0  0  0  0
 23 32  1  0  0  0  0
 24 25  1  0  0  0  0
 25 26  2  0  0  0  0
 27 26  1  0  0  0  0
 27 28  1  0  0  0  0
 28 33  1  0  0  0  0
 29 28  2  0  0  0  0
 30 29  1  0  0  0  0
 31 32  1  0  0  0  0
 31 30  2  0  0  0  0
 32 27  2  0  0  0  0
 33 34  1  0  0  0  0
 33 35  2  0  0  0  0
 34 36  1  0  0  0  0
 37 34  1  0  0  0  0
M  END
>  <minimizedAffinity>
-8.4617691

$$$$

 OpenBabel10152418383D

 37 40  0  0  0  0  0  0  0  0999 V2000
    3.2890   -8.7950  -27.2500 C   0  0  0  0  0  0  0  0  0  0  0  0
    3.3800   -7.9680  -26.1310 C   0  0  0  0  0  3  0  0  0  0  0  0
    2.8080   -8.3700  -24.9290 C   0  0  0  0  0  3  0  0  0  0  0  0
    2.1820   -9.6140  -24.8370 C   0  0  0  0  0  3  0  0  0  0  0  0
    2.1840  -10.5150  -25.9130 C   0  0  0  0  0  0  0  0  0  0  0  0
    2.7540  -10.0850  -27.1190 C   0  0  0  0  0  3  0  0  0  0  0  0
    3.1090   -7.3200  -29.2780 C   0  0  0  0  0  0  0  0  0  0  0  0
    3.4730   -7.1400  -30.4360 O   0  0  0  0  0  0  0  0  0  0  0  0
    3.7170   -8.2700  -28.4820 N   0  0  0  0  0  0  0  0  0  0  0  0
    4.6200   -8.5650  -28.8340 H   0  0  0  0  0  0  0  0  0  0  0  0
    0.2140   -4.8040  -27.3820 C   0  0  0  0  0  0  0  0  0  0  0  0
   -0.0220   -6.1760  -27.5360 C   0  0  0  0  0  3  0  0  0  0  0  0
    0.8980   -6.9940  -28.1970 C   0  0  0  0  0  3  0  0  0  0  0  0
    2.0710   -6.4330  -28.6970 C   0  0  0  0  0  0  0  0  0  0  0  0
    2.2780   -5.0490  -28.6180 C   0  0  0  0  0  3  0  0  0  0  0  0
    1.3550   -4.2400  -27.9490 C   0  0  0  0  0  3  0  0  0  0  0  0
   -0.7370   -4.1440  -26.6570 O   0  0  0  0  0  0  0  0  0  0  0  0
   -1.3890   -2.1910  -25.3510 C   0  0  0  0  0  1  0  0  0  0  0  0
   -0.7010   -2.7170  -26.6010 C   0  0  0  0  0  2  0  0  0  0  0  0
    1.5290  -11.8870  -25.8200 C   0  0  0  0  0  2  0  0  0  0  0  0
    0.1140  -11.7990  -25.5060 N   0  0  0  0  0  0  0  0  0  0  0  0
   -0.5290  -12.4040  -25.9890 H   0  0  0  0  0  0  0  0  0  0  0  0
   -0.2680  -11.1510  -24.3390 C   0  0  0  0  0  0  0  0  0  0  0  0
   -0.3310  -11.9070  -23.2280 N   0  0  0  0  0  0  0  0  0  0  0  0
   -1.0150  -11.4110  -22.2010 C   0  0  0  0  0  3  0  0  0  0  0  0
   -1.7210  -10.2790  -22.2160 N   0  0  0  0  0  0  0  0  0  0  0  0
   -1.6250   -9.5000  -23.3100 C   0  0  0  0  0  0  0  0  0  0  0  0
   -2.3660   -8.3190  -23.4330 C   0  0  0  0  0  0  0  0  0  0  0  0
   -2.2170   -7.4310  -24.5070 C   0  0  0  0  0  3  0  0  0  0  0  0
   -1.3520   -7.7500  -25.5390 C   0  0  0  0  0  3  0  0  0  0  0  0
   -0.6840   -8.9720  -25.5050 C   0  0  0  0  0  3  0  0  0  0  0  0
   -0.8210   -9.8580  -24.4010 C   0  0  0  0  0  0  0  0  0  0  0  0
   -3.4590   -8.0220  -22.4880 C   0  0  0  0  0  0  0  0  0  0  0  0
   -3.0630   -7.7320  -21.2110 N   0  0  0  0  0  0  0  0  0  0  0  0
   -4.6350   -8.1480  -22.8000 O   0  0  0  0  0  0  0  0  0  0  0  0
   -3.7750   -7.5630  -20.5150 H   0  0  0  0  0  0  0  0  0  0  0  0
   -2.0910   -7.6500  -20.9490 H   0  0  0  0  0  0  0  0  0  0  0  0
  1  6  2  0  0  0  0
  1  2  1  0  0  0  0
  2  3  2  0  0  0  0
  3  4  1  0  0  0  0
  5 20  1  0  0  0  0
  5  4  2  0  0  0  0
  6  5  1  0  0  0  0
  7 14  1  0  0  0  0
  7  9  1  0  0  0  0
  8  7  2  0  0  0  0
  9  1  1  0  0  0  0
 10  9  1  0  0  0  0
 11 17  1  0  0  0  0
 12 11  1  0  0  0  0
 13 12  2  0  0  0  0
 14 15  2  0  0  0  0
 14 13  1  0  0  0  0
 15 16  1  0  0  0  0
 16 11  2  0  0  0  0
 17 19  1  0  0  0  0
 19 18  1  0  0  0  0
 20 21  1  0  0  0  0
 21 23  1  0  0  0  0
 22 21  1  0  0  0  0
 23 24  1  0  0  0  0
 24 25  2  0  0  0  0
 26 25  1  0  0  0  0
 27 26  2  0  0  0  0
 28 27  1  0  0  0  0
 28 33  1  0  0  0  0
 29 28  2  0  0  0  0
 30 31  2  0  0  0  0
 30 29  1  0  0  0  0
 31 32  1  0  0  0  0
 32 23  2  0  0  0  0
 32 27  1  0  0  0  0
 33 34  1  0  0  0  0
 34 37  1  0  0  0  0
 34 36  1  0  0  0  0
 35 33  2  0  0  0  0
M  END
>  <minimizedAffinity>
-7.4546175

$$$$

 OpenBabel10152418383D

 37 40  0  0  0  0  0  0  0  0999 V2000
   -0.5600   -5.7120  -25.5370 C   0  0  0  0  0  0  0  0  0  0  0  0
    0.0780   -5.3220  -24.3600 C   0  0  0  0  0  3  0  0  0  0  0  0
   -0.2940   -5.9000  -23.1510 C   0  0  0  0  0  3  0  0  0  0  0  0
   -1.2730   -6.8940  -23.1260 C   0  0  0  0  0  3  0  0  0  0  0  0
   -1.8420   -7.3900  -24.3090 C   0  0  0  0  0  0  0  0  0  0  0  0
   -1.4640   -6.7850  -25.5150 C   0  0  0  0  0  3  0  0  0  0  0  0
    0.7930   -5.0800  -27.5600 C   0  0  0  0  0  0  0  0  0  0  0  0
    1.0240   -4.2100  -28.3940 O   0  0  0  0  0  0  0  0  0  0  0  0
   -0.2830   -4.9730  -26.7010 N   0  0  0  0  0  0  0  0  0  0  0  0
   -0.9760   -4.3020  -27.0120 H   0  0  0  0  0  0  0  0  0  0  0  0
    3.3740   -8.4910  -27.4500 C   0  0  0  0  0  0  0  0  0  0  0  0
    3.2640   -7.7140  -28.6100 C   0  0  0  0  0  3  0  0  0  0  0  0
    2.3870   -6.6280  -28.6670 C   0  0  0  0  0  3  0  0  0  0  0  0
    1.6220   -6.3100  -27.5470 C   0  0  0  0  0  0  0  0  0  0  0  0
    1.6670   -7.1280  -26.4100 C   0  0  0  0  0  3  0  0  0  0  0  0
    2.5520   -8.2090  -26.3590 C   0  0  0  0  0  3  0  0  0  0  0  0
    4.3180   -9.4750  -27.5140 O   0  0  0  0  0  0  0  0  0  0  0  0
    4.8700  -11.2270  -29.1170 C   0  0  0  0  0  1  0  0  0  0  0  0
    4.9500   -9.7500  -28.7650 C   0  0  0  0  0  2  0  0  0  0  0  0
   -2.8910   -8.4940  -24.3010 C   0  0  0  0  0  2  0  0  0  0  0  0
   -2.7700   -9.3570  -23.1390 N   0  0  0  0  0  0  0  0  0  0  0  0
   -3.4990   -9.3420  -22.4450 H   0  0  0  0  0  0  0  0  0  0  0  0
   -1.8560  -10.4010  -23.1810 C   0  0  0  0  0  0  0  0  0  0  0  0
   -1.4550  -10.8930  -21.9950 N   0  0  0  0  0  0  0  0  0  0  0  0
   -0.3470  -11.6290  -21.9920 C   0  0  0  0  0  3  0  0  0  0  0  0
    0.4470  -11.8350  -23.0440 N   0  0  0  0  0  0  0  0  0  0  0  0
    0.0270  -11.3810  -24.2410 C   0  0  0  0  0  0  0  0  0  0  0  0
    0.8150  -11.5110  -25.3890 C   0  0  0  0  0  0  0  0  0  0  0  0
    0.3710  -11.1450  -26.6680 C   0  0  0  0  0  3  0  0  0  0  0  0
   -0.8770  -10.5640  -26.8130 C   0  0  0  0  0  3  0  0  0  0  0  0
   -1.6410  -10.3140  -25.6770 C   0  0  0  0  0  3  0  0  0  0  0  0
   -1.1960  -10.7100  -24.3850 C   0  0  0  0  0  0  0  0  0  0  0  0
    2.2290  -11.9170  -25.2820 C   0  0  0  0  0  0  0  0  0  0  0  0
    2.7090  -12.0270  -24.0060 N   0  0  0  0  0  0  0  0  0  0  0  0
    2.9460  -12.0270  -26.2670 O   0  0  0  0  0  0  0  0  0  0  0  0
    3.6840  -12.2610  -23.8780 H   0  0  0  0  0  0  0  0  0  0  0  0
    2.1210  -11.9140  -23.1930 H   0  0  0  0  0  0  0  0  0  0  0  0
  1  6  2  0  0  0  0
  1  2  1  0  0  0  0
  2  3  2  0  0  0  0
  3  4  1  0  0  0  0
  5 20  1  0  0  0  0
  5  4  2  0  0  0  0
  6  5  1  0  0  0  0
  7 14  1  0  0  0  0
  7  9  1  0  0  0  0
  8  7  2  0  0  0  0
  9  1  1  0  0  0  0
 10  9  1  0  0  0  0
 11 16  1  0  0  0  0
 12 11  2  0  0  0  0
 13 12  1  0  0  0  0
 13 14  2  0  0  0  0
 14 15  1  0  0  0  0
 15 16  2  0  0  0  0
 17 11  1  0  0  0  0
 18 19  1  0  0  0  0
 19 17  1  0  0  0  0
 20 21  1  0  0  0  0
 21 22  1  0  0  0  0
 23 21  1  0  0  0  0
 23 24  1  0  0  0  0
 24 25  2  0  0  0  0
 26 25  1  0  0  0  0
 27 26  2  0  0  0  0
 28 33  1  0  0  0  0
 28 27  1  0  0  0  0
 29 28  2  0  0  0  0
 30 29  1  0  0  0  0
 30 31  2  0  0  0  0
 31 32  1  0  0  0  0
 32 27  1  0  0  0  0
 32 23  2  0  0  0  0
 33 34  1  0  0  0  0
 34 36  1  0  0  0  0
 34 37  1  0  0  0  0
 35 33  2  0  0  0  0
M  END
>  <minimizedAffinity>
-6.4414649

$$$$

 OpenBabel10152418383D

 37 40  0  0  0  0  0  0  0  0999 V2000
    4.4410   -9.9930  -28.4060 C   0  0  0  0  0  0  0  0  0  0  0  0
    4.8640  -11.3150  -28.2700 C   0  0  0  0  0  3  0  0  0  0  0  0
    4.5110  -12.0380  -27.1350 C   0  0  0  0  0  3  0  0  0  0  0  0
    3.7020  -11.4520  -26.1600 C   0  0  0  0  0  3  0  0  0  0  0  0
    3.1620  -10.1680  -26.3310 C   0  0  0  0  0  0  0  0  0  0  0  0
    3.5420   -9.4520  -27.4750 C   0  0  0  0  0  3  0  0  0  0  0  0
    4.4950   -8.0830  -30.0390 C   0  0  0  0  0  0  0  0  0  0  0  0
    4.9260   -7.6810  -31.1160 O   0  0  0  0  0  0  0  0  0  0  0  0
    4.9720   -9.2480  -29.4730 N   0  0  0  0  0  0  0  0  0  0  0  0
    5.8570   -9.5480  -29.8660 H   0  0  0  0  0  0  0  0  0  0  0  0
    1.7900   -5.4790  -27.9870 C   0  0  0  0  0  0  0  0  0  0  0  0
    3.0480   -5.7750  -27.4460 C   0  0  0  0  0  3  0  0  0  0  0  0
    3.9160   -6.6620  -28.0880 C   0  0  0  0  0  3  0  0  0  0  0  0
    3.5240   -7.2480  -29.2900 C   0  0  0  0  0  0  0  0  0  0  0  0
    2.2380   -7.0200  -29.7970 C   0  0  0  0  0  3  0  0  0  0  0  0
    1.3790   -6.1260  -29.1520 C   0  0  0  0  0  3  0  0  0  0  0  0
    1.0790   -4.5450  -27.2900 O   0  0  0  0  0  0  0  0  0  0  0  0
   -0.9390   -3.7070  -26.2100 C   0  0  0  0  0  1  0  0  0  0  0  0
   -0.3450   -4.6470  -27.2470 C   0  0  0  0  0  2  0  0  0  0  0  0
    2.2560   -9.5260  -25.2900 C   0  0  0  0  0  2  0  0  0  0  0  0
    1.0780   -8.9200  -25.8860 N   0  0  0  0  0  0  0  0  0  0  0  0
    0.8410   -9.1520  -26.8370 H   0  0  0  0  0  0  0  0  0  0  0  0
    0.1420   -8.3260  -25.0500 C   0  0  0  0  0  0  0  0  0  0  0  0
    0.0930   -6.9820  -25.0670 N   0  0  0  0  0  0  0  0  0  0  0  0
   -0.5250   -6.3900  -24.0480 C   0  0  0  0  0  3  0  0  0  0  0  0
   -1.0090   -7.0110  -22.9710 N   0  0  0  0  0  0  0  0  0  0  0  0
   -1.0000   -8.3570  -22.9710 C   0  0  0  0  0  0  0  0  0  0  0  0
   -1.4440   -9.0910  -21.8650 C   0  0  0  0  0  0  0  0  0  0  0  0
   -1.5470  -10.4890  -21.8650 C   0  0  0  0  0  3  0  0  0  0  0  0
   -1.1310  -11.2010  -22.9770 C   0  0  0  0  0  3  0  0  0  0  0  0
   -0.5770  -10.5110  -24.0510 C   0  0  0  0  0  3  0  0  0  0  0  0
   -0.4980   -9.0900  -24.0550 C   0  0  0  0  0  0  0  0  0  0  0  0
   -1.6960   -8.4190  -20.5760 C   0  0  0  0  0  0  0  0  0  0  0  0
   -2.7500   -7.5480  -20.5690 N   0  0  0  0  0  0  0  0  0  0  0  0
   -0.9390   -8.5440  -19.6240 O   0  0  0  0  0  0  0  0  0  0  0  0
   -2.9390   -7.0290  -19.7220 H   0  0  0  0  0  0  0  0  0  0  0  0
   -3.3620   -7.4280  -21.3640 H   0  0  0  0  0  0  0  0  0  0  0  0
  1  2  2  0  0  0  0
  1  6  1  0  0  0  0
  2  3  1  0  0  0  0
  3  4  2  0  0  0  0
  5  4  1  0  0  0  0
  5 20  1  0  0  0  0
  6  5  2  0  0  0  0
  7  9  1  0  0  0  0
  7 14  1  0  0  0  0
  8  7  2  0  0  0  0
  9  1  1  0  0  0  0
 10  9  1  0  0  0  0
 11 12  1  0  0  0  0
 11 17  1  0  0  0  0
 13 12  2  0  0  0  0
 14 13  1  0  0  0  0
 15 14  2  0  0  0  0
 15 16  1  0  0  0  0
 16 11  2  0  0  0  0
 17 19  1  0  0  0  0
 19 18  1  0  0  0  0
 21 20  1  0  0  0  0
 21 23  1  0  0  0  0
 22 21  1  0  0  0  0
 23 32  1  0  0  0  0
 24 23  2  0  0  0  0
 24 25  1  0  0  0  0
 25 26  2  0  0  0  0
 27 26  1  0  0  0  0
 27 28  1  0  0  0  0
 28 29  2  0  0  0  0
 28 33  1  0  0  0  0
 30 29  1  0  0  0  0
 31 30  2  0  0  0  0
 32 31  1  0  0  0  0
 32 27  2  0  0  0  0
 33 34  1  0  0  0  0
 33 35  2  0  0  0  0
 34 36  1  0  0  0  0
 37 34  1  0  0  0  0
M  END
>  <minimizedAffinity>
-6.30235672

$$$$
