
 OpenBabel10152418383D

 37 40  0  0  0  0  0  0  0  0999 V2000
    2.2580   -6.2370  -28.7210 C   0  0  0  0  0  0  0  0  0  0  0  0
    1.7920   -4.9480  -28.4680 C   0  0  0  0  0  3  0  0  0  0  0  0
    0.8430   -4.7420  -27.4720 C   0  0  0  0  0  3  0  0  0  0  0  0
    0.3930   -5.8180  -26.7050 C   0  0  0  0  0  3  0  0  0  0  0  0
    0.9370   -7.1030  -26.8570 C   0  0  0  0  0  0  0  0  0  0  0  0
    1.8810   -7.2910  -27.8750 C   0  0  0  0  0  3  0  0  0  0  0  0
    4.1660   -7.2510  -30.0070 C   0  0  0  0  0  0  0  0  0  0  0  0
    4.9200   -7.1270  -30.9670 O   0  0  0  0  0  0  0  0  0  0  0  0
    3.0720   -6.4230  -29.8530 N   0  0  0  0  0  0  0  0  0  0  0  0
    2.8140   -5.9410  -30.7060 H   0  0  0  0  0  0  0  0  0  0  0  0
    4.5510  -10.4350  -27.1760 C   0  0  0  0  0  0  0  0  0  0  0  0
    4.9740   -9.1390  -26.8560 C   0  0  0  0  0  3  0  0  0  0  0  0
    4.8950   -8.1060  -27.7940 C   0  0  0  0  0  3  0  0  0  0  0  0
    4.3760   -8.3720  -29.0590 C   0  0  0  0  0  0  0  0  0  0  0  0
    4.0240   -9.6820  -29.4120 C   0  0  0  0  0  3  0  0  0  0  0  0
    4.1010  -10.7080  -28.4670 C   0  0  0  0  0  3  0  0  0  0  0  0
    4.6220  -11.3250  -26.1420 O   0  0  0  0  0  0  0  0  0  0  0  0
    2.4260  -11.1190  -25.1050 C   0  0  0  0  0  1  0  0  0  0  0  0
    3.4460  -12.0380  -25.7580 C   0  0  0  0  0  2  0  0  0  0  0  0
    0.4770   -8.2810  -26.0090 C   0  0  0  0  0  2  0  0  0  0  0  0
   -0.9430   -8.5480  -26.1640 N   0  0  0  0  0  0  0  0  0  0  0  0
   -1.2770   -8.8980  -27.0460 H   0  0  0  0  0  0  0  0  0  0  0  0
   -1.7280   -8.6420  -25.0230 C   0  0  0  0  0  0  0  0  0  0  0  0
   -2.3730   -7.5230  -24.6480 N   0  0  0  0  0  0  0  0  0  0  0  0
   -2.8340   -7.4840  -23.4010 C   0  0  0  0  0  3  0  0  0  0  0  0
   -2.6250   -8.4150  -22.4690 N   0  0  0  0  0  0  0  0  0  0  0  0
   -2.0180   -9.5550  -22.8530 C   0  0  0  0  0  0  0  0  0  0  0  0
   -1.7150  -10.5660  -21.9350 C   0  0  0  0  0  0  0  0  0  0  0  0
   -1.1790  -11.8060  -22.3110 C   0  0  0  0  0  3  0  0  0  0  0  0
   -0.8630  -12.0350  -23.6390 C   0  0  0  0  0  3  0  0  0  0  0  0
   -1.0440  -11.0090  -24.5620 C   0  0  0  0  0  3  0  0  0  0  0  0
   -1.6110   -9.7620  -24.1790 C   0  0  0  0  0  0  0  0  0  0  0  0
   -1.8200  -10.3140  -20.4850 C   0  0  0  0  0  0  0  0  0  0  0  0
   -1.2910   -9.1260  -20.0600 N   0  0  0  0  0  0  0  0  0  0  0  0
   -2.2390  -11.1630  -19.7110 O   0  0  0  0  0  0  0  0  0  0  0  0
   -1.3000   -8.9240  -19.0700 H   0  0  0  0  0  0  0  0  0  0  0  0
   -0.9250   -8.4350  -20.6990 H   0  0  0  0  0  0  0  0  0  0  0  0
  1  2  2  0  0  0  0
  1  6  1  0  0  0  0
  2  3  1  0  0  0  0
  3  4  2  0  0  0  0
  5  4  1  0  0  0  0
  5 20  1  0  0  0  0
  6  5  2  0  0  0  0
  7  9  1  0  0  0  0
  7 14  1  0  0  0  0
  8  7  2  0  0  0  0
  9  1  1  0  0  0  0
 10  9  1  0  0  0  0
 11 12  1  0  0  0  0
 11 17  1  0  0  0  0
 13 12  2  0  0  0  0
 14 13  1  0  0  0  0
 15 14  2  0  0  0  0
 15 16  1  0  0  0  0
 16 11  2  0  0  0  0
 17 19  1  0  0  0  0
 19 18  1  0  0  0  0
 21 20  1  0  0  0  0
 21 23  1  0  0  0  0
 22 21  1  0  0  0  0
 23 24  2  0  0  0  0
 23 32  1  0  0  0  0
 24 25  1  0  0  0  0
 25 26  2  0  0  0  0
 27 26  1  0  0  0  0
 27 28  1  0  0  0  0
 28 33  1  0  0  0  0
 29 28  2  0  0  0  0
 30 29  1  0  0  0  0
 31 32  1  0  0  0  0
 31 30  2  0  0  0  0
 32 27  2  0  0  0  0
 33 34  1  0  0  0  0
 33 35  2  0  0  0  0
 34 36  1  0  0  0  0
 37 34  1  0  0  0  0
M  END
>  <minimizedAffinity>
-8.4617691

$$$$
