
 OpenBabel10152418383D

 37 40  0  0  0  0  0  0  0  0999 V2000
    3.2890   -8.7950  -27.2500 C   0  0  0  0  0  0  0  0  0  0  0  0
    3.3800   -7.9680  -26.1310 C   0  0  0  0  0  3  0  0  0  0  0  0
    2.8080   -8.3700  -24.9290 C   0  0  0  0  0  3  0  0  0  0  0  0
    2.1820   -9.6140  -24.8370 C   0  0  0  0  0  3  0  0  0  0  0  0
    2.1840  -10.5150  -25.9130 C   0  0  0  0  0  0  0  0  0  0  0  0
    2.7540  -10.0850  -27.1190 C   0  0  0  0  0  3  0  0  0  0  0  0
    3.1090   -7.3200  -29.2780 C   0  0  0  0  0  0  0  0  0  0  0  0
    3.4730   -7.1400  -30.4360 O   0  0  0  0  0  0  0  0  0  0  0  0
    3.7170   -8.2700  -28.4820 N   0  0  0  0  0  0  0  0  0  0  0  0
    4.6200   -8.5650  -28.8340 H   0  0  0  0  0  0  0  0  0  0  0  0
    0.2140   -4.8040  -27.3820 C   0  0  0  0  0  0  0  0  0  0  0  0
   -0.0220   -6.1760  -27.5360 C   0  0  0  0  0  3  0  0  0  0  0  0
    0.8980   -6.9940  -28.1970 C   0  0  0  0  0  3  0  0  0  0  0  0
    2.0710   -6.4330  -28.6970 C   0  0  0  0  0  0  0  0  0  0  0  0
    2.2780   -5.0490  -28.6180 C   0  0  0  0  0  3  0  0  0  0  0  0
    1.3550   -4.2400  -27.9490 C   0  0  0  0  0  3  0  0  0  0  0  0
   -0.7370   -4.1440  -26.6570 O   0  0  0  0  0  0  0  0  0  0  0  0
   -1.3890   -2.1910  -25.3510 C   0  0  0  0  0  1  0  0  0  0  0  0
   -0.7010   -2.7170  -26.6010 C   0  0  0  0  0  2  0  0  0  0  0  0
    1.5290  -11.8870  -25.8200 C   0  0  0  0  0  2  0  0  0  0  0  0
    0.1140  -11.7990  -25.5060 N   0  0  0  0  0  0  0  0  0  0  0  0
   -0.5290  -12.4040  -25.9890 H   0  0  0  0  0  0  0  0  0  0  0  0
   -0.2680  -11.1510  -24.3390 C   0  0  0  0  0  0  0  0  0  0  0  0
   -0.3310  -11.9070  -23.2280 N   0  0  0  0  0  0  0  0  0  0  0  0
   -1.0150  -11.4110  -22.2010 C   0  0  0  0  0  3  0  0  0  0  0  0
   -1.7210  -10.2790  -22.2160 N   0  0  0  0  0  0  0  0  0  0  0  0
   -1.6250   -9.5000  -23.3100 C   0  0  0  0  0  0  0  0  0  0  0  0
   -2.3660   -8.3190  -23.4330 C   0  0  0  0  0  0  0  0  0  0  0  0
   -2.2170   -7.4310  -24.5070 C   0  0  0  0  0  3  0  0  0  0  0  0
   -1.3520   -7.7500  -25.5390 C   0  0  0  0  0  3  0  0  0  0  0  0
   -0.6840   -8.9720  -25.5050 C   0  0  0  0  0  3  0  0  0  0  0  0
   -0.8210   -9.8580  -24.4010 C   0  0  0  0  0  0  0  0  0  0  0  0
   -3.4590   -8.0220  -22.4880 C   0  0  0  0  0  0  0  0  0  0  0  0
   -3.0630   -7.7320  -21.2110 N   0  0  0  0  0  0  0  0  0  0  0  0
   -4.6350   -8.1480  -22.8000 O   0  0  0  0  0  0  0  0  0  0  0  0
   -3.7750   -7.5630  -20.5150 H   0  0  0  0  0  0  0  0  0  0  0  0
   -2.0910   -7.6500  -20.9490 H   0  0  0  0  0  0  0  0  0  0  0  0
  1  6  2  0  0  0  0
  1  2  1  0  0  0  0
  2  3  2  0  0  0  0
  3  4  1  0  0  0  0
  5 20  1  0  0  0  0
  5  4  2  0  0  0  0
  6  5  1  0  0  0  0
  7 14  1  0  0  0  0
  7  9  1  0  0  0  0
  8  7  2  0  0  0  0
  9  1  1  0  0  0  0
 10  9  1  0  0  0  0
 11 17  1  0  0  0  0
 12 11  1  0  0  0  0
 13 12  2  0  0  0  0
 14 15  2  0  0  0  0
 14 13  1  0  0  0  0
 15 16  1  0  0  0  0
 16 11  2  0  0  0  0
 17 19  1  0  0  0  0
 19 18  1  0  0  0  0
 20 21  1  0  0  0  0
 21 23  1  0  0  0  0
 22 21  1  0  0  0  0
 23 24  1  0  0  0  0
 24 25  2  0  0  0  0
 26 25  1  0  0  0  0
 27 26  2  0  0  0  0
 28 27  1  0  0  0  0
 28 33  1  0  0  0  0
 29 28  2  0  0  0  0
 30 31  2  0  0  0  0
 30 29  1  0  0  0  0
 31 32  1  0  0  0  0
 32 23  2  0  0  0  0
 32 27  1  0  0  0  0
 33 34  1  0  0  0  0
 34 37  1  0  0  0  0
 34 36  1  0  0  0  0
 35 33  2  0  0  0  0
M  END
>  <minimizedAffinity>
-7.4546175

$$$$
