
 OpenBabel10152419153D

 40 43  0  0  0  0  0  0  0  0999 V2000
    9.4550   -9.4320    9.9530 C   0  0  0  0  0  0  0  0  0  0  0  0
   10.0410  -10.5820    9.4250 C   0  0  0  0  0  3  0  0  0  0  0  0
    9.3520  -11.3330    8.4810 C   0  0  0  0  0  3  0  0  0  0  0  0
    8.0940  -10.9140    8.0420 C   0  0  0  0  0  3  0  0  0  0  0  0
    7.5380   -9.6940    8.4610 C   0  0  0  0  0  0  0  0  0  0  0  0
    8.2550   -8.9490    9.4070 C   0  0  0  0  0  3  0  0  0  0  0  0
   10.3900   -9.4260   12.2970 C   0  0  0  0  0  0  0  0  0  0  0  0
   10.7680   -8.7260   13.2340 O   0  0  0  0  0  0  0  0  0  0  0  0
   10.0750   -8.8580   11.0780 N   0  0  0  0  0  0  0  0  0  0  0  0
   10.4340   -7.9150   10.9840 H   0  0  0  0  0  0  0  0  0  0  0  0
    9.9820  -13.6230   12.9710 C   0  0  0  0  0  0  0  0  0  0  0  0
   10.5930  -12.8020   13.9280 C   0  0  0  0  0  3  0  0  0  0  0  0
   10.7830  -11.4420   13.6820 C   0  0  0  0  0  3  0  0  0  0  0  0
   10.3540  -10.9010   12.4720 C   0  0  0  0  0  0  0  0  0  0  0  0
    9.8290  -11.7390   11.4770 C   0  0  0  0  0  3  0  0  0  0  0  0
    9.5710  -13.0980   11.7370 C   0  0  0  0  0  0  0  0  0  0  0  0
    8.7990  -13.9030   10.7250 C   0  0  0  0  0  0  0  0  0  0  0  0
    7.8950  -13.1650   10.0250 F   0  0  0  0  0  0  0  0  0  0  0  0
    9.5960  -14.4830    9.7810 F   0  0  0  0  0  0  0  0  0  0  0  0
    8.1020  -14.9290   11.2890 F   0  0  0  0  0  0  0  0  0  0  0  0
    8.3590  -15.0860   13.8230 C   0  0  0  0  0  1  0  0  0  0  0  0
    9.7050  -14.8950   13.3900 O   0  0  0  0  0  0  0  0  0  0  0  0
    6.1560   -9.2410    8.0030 C   0  0  0  0  0  2  0  0  0  0  0  0
    5.2740   -8.9200    9.1120 N   0  0  0  0  0  0  0  0  0  0  0  0
    4.3450   -8.5900    8.9140 H   0  0  0  0  0  0  0  0  0  0  0  0
    5.6080   -9.3780   10.3800 C   0  0  0  0  0  0  0  0  0  0  0  0
    6.6900   -8.8230   10.9550 N   0  0  0  0  0  0  0  0  0  0  0  0
    7.2490   -9.4940   11.9590 C   0  0  0  0  0  3  0  0  0  0  0  0
    6.8880  -10.7110   12.3700 N   0  0  0  0  0  0  0  0  0  0  0  0
    5.7750  -11.2440   11.8290 C   0  0  0  0  0  0  0  0  0  0  0  0
    5.3500  -12.5370   12.1490 C   0  0  0  0  0  0  0  0  0  0  0  0
    4.1450  -13.0880   11.6910 C   0  0  0  0  0  3  0  0  0  0  0  0
    3.3490  -12.3540   10.8280 C   0  0  0  0  0  3  0  0  0  0  0  0
    3.8020  -11.1140   10.3890 C   0  0  0  0  0  3  0  0  0  0  0  0
    5.0190  -10.5580   10.8700 C   0  0  0  0  0  0  0  0  0  0  0  0
    6.2640  -13.4550   12.8490 C   0  0  0  0  0  0  0  0  0  0  0  0
    7.1480  -12.8420   13.6980 N   0  0  0  0  0  0  0  0  0  0  0  0
    6.3030  -14.6510   12.6020 O   0  0  0  0  0  0  0  0  0  0  0  0
    7.8260  -13.4130   14.1810 H   0  0  0  0  0  0  0  0  0  0  0  0
    7.1360  -11.8450   13.8690 H   0  0  0  0  0  0  0  0  0  0  0  0
  1  9  1  0  0  0  0
  2  1  1  0  0  0  0
  3  2  2  0  0  0  0
  4  5  2  0  0  0  0
  4  3  1  0  0  0  0
  5  6  1  0  0  0  0
  6  1  2  0  0  0  0
  7 14  1  0  0  0  0
  7  8  2  0  0  0  0
  9  7  1  0  0  0  0
 10  9  1  0  0  0  0
 11 22  1  0  0  0  0
 11 12  1  0  0  0  0
 13 12  2  0  0  0  0
 14 13  1  0  0  0  0
 15 16  1  0  0  0  0
 15 14  2  0  0  0  0
 16 11  2  0  0  0  0
 17 20  1  0  0  0  0
 17 16  1  0  0  0  0
 18 17  1  0  0  0  0
 19 17  1  0  0  0  0
 22 21  1  0  0  0  0
 23  5  1  0  0  0  0
 23 24  1  0  0  0  0
 24 26  1  0  0  0  0
 25 24  1  0  0  0  0
 26 35  2  0  0  0  0
 26 27  1  0  0  0  0
 27 28  2  0  0  0  0
 28 29  1  0  0  0  0
 30 31  1  0  0  0  0
 30 29  2  0  0  0  0
 31 36  1  0  0  0  0
 32 31  2  0  0  0  0
 33 32  1  0  0  0  0
 34 33  2  0  0  0  0
 34 35  1  0  0  0  0
 35 30  1  0  0  0  0
 36 37  1  0  0  0  0
 37 40  1  0  0  0  0
 37 39  1  0  0  0  0
 38 36  2  0  0  0  0
M  END
>  <minimizedAffinity>
24.096035

$$$$
