REMARK  Name = 
REMARK  9 active torsions:
REMARK  status: ('A' for Active; 'I' for Inactive)
REMARK    1  A    between atoms: C_1  and  O_2
REMARK    2  A    between atoms: O_2  and  C_3
REMARK    3  A    between atoms: C_6  and  C_7
REMARK    4  A    between atoms: N_9  and  C_10
REMARK    5  A    between atoms: C_14  and  C_15
REMARK    6  A    between atoms: C_15  and  N_16
REMARK    7  A    between atoms: N_16  and  C_17
REMARK    8  A    between atoms: C_22  and  C_23
REMARK    9  A    between atoms: C_32  and  C_33
REMARK                            x       y       z     vdW  Elec       q    Type
REMARK                         _______ _______ _______ _____ _____    ______ ____
ROOT
ATOM      1  C   UNL     1       4.364  -0.842   5.319  0.00  0.00    +0.034 A 
ATOM      2  C   UNL     1       5.474  -1.686   5.321  0.00  0.00    +0.023 A 
ATOM      3  C   UNL     1       6.448  -1.542   4.341  0.00  0.00    +0.002 A 
ATOM      4  C   UNL     1       6.327  -0.534   3.383  0.00  0.00    +0.005 A 
ATOM      5  C   UNL     1       5.288   0.409   3.434  0.00  0.00    -0.029 A 
ATOM      6  C   UNL     1       4.321   0.250   4.437  0.00  0.00    +0.028 A 
ENDROOT
BRANCH   1   9
ATOM      7  C   UNL     1       1.936  -1.014   5.987  0.00  0.00    +0.248 C 
ATOM      8  O   UNL     1       1.153  -1.215   6.913  0.00  0.00    -0.270 OA
ATOM      9  N   UNL     1       3.295  -1.190   6.165  0.00  0.00    -0.281 N 
ATOM     10  H   UNL     1       3.512  -1.728   6.996  0.00  0.00    +0.155 HD
BRANCH   7  14
ATOM     11  C   UNL     1       0.604   0.280   2.142  0.00  0.00    +0.132 A 
ATOM     12  C   UNL     1       0.060   0.832   3.310  0.00  0.00    +0.047 A 
ATOM     13  C   UNL     1       0.450   0.366   4.566  0.00  0.00    +0.016 A 
ATOM     14  C   UNL     1       1.392  -0.656   4.652  0.00  0.00    +0.038 A 
ATOM     15  C   UNL     1       1.866  -1.273   3.484  0.00  0.00    +0.029 A 
ATOM     16  C   UNL     1       1.532  -0.768   2.213  0.00  0.00    +0.097 A 
BRANCH  16  17
ATOM     17  C   UNL     1       2.240  -1.313   1.001  0.00  0.00    +0.421 C 
ATOM     18  F   UNL     1       2.728  -0.343   0.179  0.00  0.00    -0.166 F 
ATOM     19  F   UNL     1       3.316  -2.092   1.313  0.00  0.00    -0.166 F 
ATOM     20  F   UNL     1       1.437  -2.099   0.231  0.00  0.00    -0.166 F 
ENDBRANCH  16  17
BRANCH  11  22
ATOM     21  C   UNL     1      -0.410   0.108   0.035  0.00  0.00    +0.277 C 
ATOM     22  O   UNL     1       0.269   0.927   0.985  0.00  0.00    -0.495 OA
ENDBRANCH  11  22
ENDBRANCH   7  14
ENDBRANCH   1   9
BRANCH   5  23
ATOM     23  C   UNL     1       5.138   1.499   2.379  0.00  0.00    +0.138 C 
BRANCH  23  24
ATOM     24  N   UNL     1       6.250   2.434   2.376  0.00  0.00    -0.324 N 
ATOM     25  H   UNL     1       6.201   3.250   2.963  0.00  0.00    +0.148 HD
BRANCH  24  26
ATOM     26  C   UNL     1       7.461   2.024   1.834  0.00  0.00    +0.130 A 
ATOM     27  N   UNL     1       7.399   1.288   0.710  0.00  0.00    -0.220 NA
ATOM     28  C   UNL     1       8.476   0.571   0.399  0.00  0.00    +0.223 A 
ATOM     29  N   UNL     1       9.565   0.444   1.160  0.00  0.00    -0.235 NA
ATOM     30  C   UNL     1       9.648   1.220   2.259  0.00  0.00    +0.088 A 
ATOM     31  C   UNL     1      10.719   1.116   3.151  0.00  0.00    +0.063 A 
ATOM     32  C   UNL     1      10.897   1.974   4.246  0.00  0.00    +0.015 A 
ATOM     33  C   UNL     1       9.942   2.941   4.510  0.00  0.00    +0.002 A 
ATOM     34  C   UNL     1       8.800   2.991   3.717  0.00  0.00    +0.013 A 
ATOM     35  C   UNL     1       8.636   2.126   2.601  0.00  0.00    +0.041 A 
BRANCH  31  36
ATOM     36  C   UNL     1      11.625  -0.042   3.075  0.00  0.00    +0.244 C 
ATOM     37  N   UNL     1      11.077  -1.223   3.502  0.00  0.00    -0.325 N 
ATOM     38  O   UNL     1      12.802   0.070   2.767  0.00  0.00    -0.270 OA
ATOM     39  H   UNL     1      11.659  -2.049   3.509  0.00  0.00    +0.145 HD
ATOM     40  H   UNL     1      10.112  -1.302   3.793  0.00  0.00    +0.145 HD
ENDBRANCH  31  36
ENDBRANCH  24  26
ENDBRANCH  23  24
ENDBRANCH   5  23
TORSDOF 8
