
 OpenBabel10152418123D

 39 42  0  0  1  0  0  0  0  0999 V2000
    0.3460  -10.8000  -23.8550 C   0  0  0  0  0  0  0  0  0  0  0  0
   -0.1480  -11.7680  -22.9790 C   0  0  0  0  0  3  0  0  0  0  0  0
   -1.2860  -11.5460  -22.2210 C   0  0  0  0  0  3  0  0  0  0  0  0
   -1.7930  -10.2670  -22.1260 C   0  0  0  0  0  3  0  0  0  0  0  0
   -1.0580   -9.2050  -22.6260 C   0  0  0  0  0  0  0  0  0  0  0  0
   -0.0820   -9.4770  -23.6000 C   0  0  0  0  0  3  0  0  0  0  0  0
   -1.2510   -7.8800  -22.1880 N   0  0  0  0  0  0  0  0  0  0  0  0
   -1.0480   -6.6650  -22.8350 C   0  0  0  0  0  0  0  0  0  0  0  0
   -1.1050   -5.6430  -22.1590 O   0  0  0  0  0  0  0  0  0  0  0  0
   -1.6490   -7.7480  -21.2670 H   0  0  0  0  0  0  0  0  0  0  0  0
   -0.7620   -6.6080  -24.2520 C   0  0  2  0  0  3  0  0  0  0  0  0
    0.2760   -6.0790  -24.9990 C   0  0  0  0  0  2  0  0  0  0  0  0
   -0.2380   -5.9750  -26.3220 C   0  0  1  0  0  3  0  0  0  0  0  0
   -1.3760   -6.6790  -26.4340 N   0  0  0  0  0  2  0  0  0  0  0  0
   -1.6120   -7.1270  -25.1880 N   0  0  0  0  0  0  0  0  0  0  0  0
   -2.4470   -7.6800  -25.0190 H   0  0  0  0  0  0  0  0  0  0  0  0
    0.2410   -5.0960  -27.4730 C   0  0  0  0  0  0  0  0  0  0  0  0
   -0.3770   -5.5430  -28.8090 C   0  0  0  0  0  1  0  0  0  0  0  0
   -0.1770   -3.6300  -27.2040 C   0  0  0  0  0  1  0  0  0  0  0  0
    1.7760   -5.1220  -27.6260 C   0  0  0  0  0  1  0  0  0  0  0  0
    0.3300  -10.8890  -26.4170 C   0  0  0  0  0  1  0  0  0  0  0  0
    1.1240  -11.1810  -25.1290 C   0  0  1  0  0  3  0  0  0  0  0  0
    2.4520  -10.5900  -25.3210 N   0  0  0  0  0  0  0  0  0  0  0  0
    2.9600  -10.3960  -24.4610 H   0  0  0  0  0  0  0  0  0  0  0  0
    3.3630  -10.6240  -26.3420 C   0  0  0  0  0  0  0  0  0  0  0  0
    3.5240  -11.8830  -26.7780 N   0  0  0  0  0  0  0  0  0  0  0  0
    4.0610  -12.0370  -27.9840 C   0  0  0  0  0  3  0  0  0  0  0  0
    4.3860  -11.0470  -28.8190 N   0  0  0  0  0  0  0  0  0  0  0  0
    4.3080   -9.7820  -28.3560 C   0  0  0  0  0  0  0  0  0  0  0  0
    4.5300   -8.6720  -29.1950 C   0  0  0  0  0  0  0  0  0  0  0  0
    4.5370   -7.3600  -28.6860 C   0  0  0  0  0  3  0  0  0  0  0  0
    4.2980   -7.1270  -27.3410 C   0  0  0  0  0  3  0  0  0  0  0  0
    3.9750   -8.2000  -26.5190 C   0  0  0  0  0  3  0  0  0  0  0  0
    3.9170   -9.5240  -27.0250 C   0  0  0  0  0  0  0  0  0  0  0  0
    4.6460   -8.7890  -30.6840 C   0  0  0  0  0  0  0  0  0  0  0  0
    4.9270  -10.0120  -31.2200 N   0  0  0  0  0  0  0  0  0  0  0  0
    4.4330   -7.8330  -31.4220 O   0  0  0  0  0  0  0  0  0  0  0  0
    4.9690  -10.1130  -32.2230 H   0  0  0  0  0  0  0  0  0  0  0  0
    5.1420  -10.8060  -30.6240 H   0  0  0  0  0  0  0  0  0  0  0  0
  1  6  2  0  0  0  0
  1  2  1  0  0  0  0
  2  3  2  0  0  0  0
  3  4  1  0  0  0  0
  5  7  1  0  0  0  0
  5  4  2  0  0  0  0
  6  5  1  0  0  0  0
  7 10  1  0  0  0  0
  8  7  1  0  0  0  0
  8  9  2  0  0  0  0
 11  8  1  6  0  0  0
 12 11  1  0  0  0  0
 13 17  1  1  0  0  0
 13 12  1  0  0  0  0
 14 13  1  0  0  0  0
 14 15  1  0  0  0  0
 15 16  1  0  0  0  0
 15 11  1  0  0  0  0
 17 19  1  0  0  0  0
 18 17  1  0  0  0  0
 20 17  1  0  0  0  0
 22 21  1  6  0  0  0
 22  1  1  0  0  0  0
 23 22  1  0  0  0  0
 23 24  1  0  0  0  0
 25 23  1  0  0  0  0
 26 25  1  0  0  0  0
 27 26  2  0  0  0  0
 28 29  2  0  0  0  0
 28 27  1  0  0  0  0
 29 34  1  0  0  0  0
 30 31  2  0  0  0  0
 30 29  1  0  0  0  0
 31 32  1  0  0  0  0
 32 33  2  0  0  0  0
 34 33  1  0  0  0  0
 34 25  2  0  0  0  0
 35 30  1  0  0  0  0
 36 35  1  0  0  0  0
 36 39  1  0  0  0  0
 37 35  2  0  0  0  0
 38 36  1  0  0  0  0
M  END
>  <minimizedAffinity>
-8.20862389

$$$$
