
 OpenBabel10152418123D

 39 42  0  0  1  0  0  0  0  0999 V2000
   -1.9010   -9.0810  -22.2040 C   0  0  0  0  0  0  0  0  0  0  0  0
   -1.9240   -9.9680  -21.1250 C   0  0  0  0  0  3  0  0  0  0  0  0
   -1.3260  -11.2140  -21.1980 C   0  0  0  0  0  3  0  0  0  0  0  0
   -0.9290  -11.6990  -22.4270 C   0  0  0  0  0  3  0  0  0  0  0  0
   -1.3040  -11.0260  -23.5780 C   0  0  0  0  0  0  0  0  0  0  0  0
   -1.6530   -9.6690  -23.4660 C   0  0  0  0  0  3  0  0  0  0  0  0
   -1.3510  -11.6530  -24.8390 N   0  0  0  0  0  0  0  0  0  0  0  0
   -0.5310  -11.5230  -25.9540 C   0  0  0  0  0  0  0  0  0  0  0  0
   -0.9090  -12.0380  -27.0020 O   0  0  0  0  0  0  0  0  0  0  0  0
   -2.0620  -12.3590  -24.9800 H   0  0  0  0  0  0  0  0  0  0  0  0
    0.7160  -10.7930  -25.8890 C   0  0  2  0  0  3  0  0  0  0  0  0
    1.2520   -9.7430  -26.6150 C   0  0  0  0  0  2  0  0  0  0  0  0
    2.6470   -9.7790  -26.3380 C   0  0  1  0  0  3  0  0  0  0  0  0
    2.8920  -10.5760  -25.2860 N   0  0  0  0  0  2  0  0  0  0  0  0
    1.6910  -11.0980  -24.9790 N   0  0  0  0  0  0  0  0  0  0  0  0
    1.6290  -11.7590  -24.2110 H   0  0  0  0  0  0  0  0  0  0  0  0
    3.8010   -9.1860  -27.1410 C   0  0  0  0  0  0  0  0  0  0  0  0
    4.3280   -7.8970  -26.4890 C   0  0  0  0  0  1  0  0  0  0  0  0
    4.9580  -10.2130  -27.2070 C   0  0  0  0  0  1  0  0  0  0  0  0
    3.3910   -8.8530  -28.5910 C   0  0  0  0  0  1  0  0  0  0  0  0
   -1.7450   -7.1510  -20.5240 C   0  0  0  0  0  1  0  0  0  0  0  0
   -1.9280   -7.5540  -22.0000 C   0  0  1  0  0  3  0  0  0  0  0  0
   -0.9780   -6.7460  -22.7700 N   0  0  0  0  0  0  0  0  0  0  0  0
   -0.0440   -7.1430  -22.8450 H   0  0  0  0  0  0  0  0  0  0  0  0
   -1.1170   -5.8200  -23.7680 C   0  0  0  0  0  0  0  0  0  0  0  0
   -1.3490   -4.6060  -23.2450 N   0  0  0  0  0  0  0  0  0  0  0  0
   -1.1280   -3.5600  -24.0330 C   0  0  0  0  0  3  0  0  0  0  0  0
   -0.6300   -3.6140  -25.2710 N   0  0  0  0  0  0  0  0  0  0  0  0
   -0.4760   -4.8320  -25.8340 C   0  0  0  0  0  0  0  0  0  0  0  0
    0.1380   -4.9930  -27.0920 C   0  0  0  0  0  0  0  0  0  0  0  0
    0.2140   -6.2530  -27.7130 C   0  0  0  0  0  3  0  0  0  0  0  0
   -0.2950   -7.3770  -27.0840 C   0  0  0  0  0  3  0  0  0  0  0  0
   -0.8110   -7.2550  -25.8000 C   0  0  0  0  0  3  0  0  0  0  0  0
   -0.8520   -6.0000  -25.1390 C   0  0  0  0  0  0  0  0  0  0  0  0
    0.8570   -3.8800  -27.7940 C   0  0  0  0  0  0  0  0  0  0  0  0
    0.3310   -2.6230  -27.7270 N   0  0  0  0  0  0  0  0  0  0  0  0
    1.9260   -4.0660  -28.3650 O   0  0  0  0  0  0  0  0  0  0  0  0
    0.8250   -1.8590  -28.1620 H   0  0  0  0  0  0  0  0  0  0  0  0
   -0.5710   -2.4560  -27.2900 H   0  0  0  0  0  0  0  0  0  0  0  0
  1 22  1  0  0  0  0
  1  2  1  0  0  0  0
  3  2  2  0  0  0  0
  4  3  1  0  0  0  0
  5  6  1  0  0  0  0
  5  4  2  0  0  0  0
  6  1  2  0  0  0  0
  7  5  1  0  0  0  0
  8  7  1  0  0  0  0
  9  8  2  0  0  0  0
 10  7  1  0  0  0  0
 11  8  1  6  0  0  0
 11 15  1  0  0  0  0
 12 13  1  0  0  0  0
 12 11  1  0  0  0  0
 13 17  1  6  0  0  0
 13 14  1  0  0  0  0
 14 15  1  0  0  0  0
 15 16  1  0  0  0  0
 17 18  1  0  0  0  0
 19 17  1  0  0  0  0
 20 17  1  0  0  0  0
 22 21  1  1  0  0  0
 23 22  1  0  0  0  0
 24 23  1  0  0  0  0
 25 26  1  0  0  0  0
 25 23  1  0  0  0  0
 27 26  2  0  0  0  0
 28 27  1  0  0  0  0
 29 28  2  0  0  0  0
 29 34  1  0  0  0  0
 30 29  1  0  0  0  0
 31 30  2  0  0  0  0
 31 32  1  0  0  0  0
 32 33  2  0  0  0  0
 33 34  1  0  0  0  0
 34 25  2  0  0  0  0
 35 36  1  0  0  0  0
 35 30  1  0  0  0  0
 36 39  1  0  0  0  0
 37 35  2  0  0  0  0
 38 36  1  0  0  0  0
M  END
>  <minimizedAffinity>
-5.56969404

$$$$
