REMARK  Name = 
REMARK  11 active torsions:
REMARK  status: ('A' for Active; 'I' for Inactive)
REMARK    1  A    between atoms: C_1  and  C_2
REMARK    2  A    between atoms: C_2  and  N_3
REMARK    3  A    between atoms: C_2  and  C_17
REMARK    4  A    between atoms: N_3  and  C_4
REMARK    5  A    between atoms: C_9  and  C_10
REMARK    6  A    between atoms: C_21  and  N_22
REMARK    7  A    between atoms: C_23  and  C_25
REMARK    8  A    between atoms: C_27  and  C_28
REMARK    9  A    between atoms: C_28  and  C_29
REMARK   10  A    between atoms: C_28  and  C_30
REMARK   11  A    between atoms: C_28  and  C_31
REMARK                            x       y       z     vdW  Elec       q    Type
REMARK                         _______ _______ _______ _____ _____    ______ ____
ROOT
ATOM      1  C   UNL     1      -1.308   1.193   0.352  0.00  0.00    -0.026 A 
ATOM      2  C   UNL     1      -2.167   2.234  -0.006  0.00  0.00    +0.005 A 
ATOM      3  C   UNL     1      -3.406   2.390   0.592  0.00  0.00    +0.002 A 
ATOM      4  C   UNL     1      -3.916   1.365   1.361  0.00  0.00    +0.023 A 
ATOM      5  C   UNL     1      -3.278   0.135   1.366  0.00  0.00    +0.034 A 
ATOM      6  C   UNL     1      -1.924   0.092   0.991  0.00  0.00    +0.028 A 
ENDROOT
BRANCH   5   7
ATOM      7  N   UNL     1      -3.937  -1.057   1.725  0.00  0.00    -0.280 N 
ATOM      8  C   UNL     1      -5.291  -1.368   1.791  0.00  0.00    +0.266 C 
ATOM      9  O   UNL     1      -5.607  -2.425   2.328  0.00  0.00    -0.268 OA
ATOM     10  H   UNL     1      -3.360  -1.862   1.933  0.00  0.00    +0.155 HD
BRANCH   8  11
ATOM     11  C   UNL     1      -6.294  -0.471   1.261  0.00  0.00    +0.121 A 
ATOM     12  C   UNL     1      -6.361   0.336   0.138  0.00  0.00    +0.058 A 
ATOM     13  C   UNL     1      -7.404   1.264   0.414  0.00  0.00    +0.069 A 
ATOM     14  N   UNL     1      -8.122   0.855   1.471  0.00  0.00    -0.178 NA
ATOM     15  N   UNL     1      -7.482  -0.248   1.900  0.00  0.00    -0.272 N 
ATOM     16  H   UNL     1      -7.839  -0.731   2.718  0.00  0.00    +0.189 HD
BRANCH  13  17
ATOM     17  C   UNL     1      -7.663   2.631  -0.212  0.00  0.00    +0.006 C 
ATOM     18  C   UNL     1      -9.139   2.787  -0.616  0.00  0.00    +0.017 C 
ATOM     19  C   UNL     1      -7.315   3.737   0.814  0.00  0.00    +0.017 C 
ATOM     20  C   UNL     1      -6.798   2.871  -1.467  0.00  0.00    +0.017 C 
ENDBRANCH  13  17
ENDBRANCH   8  11
ENDBRANCH   5   7
BRANCH   1  22
ATOM     21  C   UNL     1       0.924  -0.008  -0.034  0.00  0.00    +0.033 C 
ATOM     22  C   UNL     1       0.223   1.334   0.252  0.00  0.00    +0.099 C 
BRANCH  22  23
ATOM     23  N   UNL     1       0.758   2.294  -0.719  0.00  0.00    -0.322 N 
ATOM     24  H   UNL     1       1.166   1.875  -1.551  0.00  0.00    +0.148 HD
BRANCH  23  25
ATOM     25  C   UNL     1       0.476   3.602  -1.008  0.00  0.00    +0.130 A 
ATOM     26  N   UNL     1       0.657   3.837  -2.317  0.00  0.00    -0.220 NA
ATOM     27  C   UNL     1       0.072   4.919  -2.819  0.00  0.00    +0.223 A 
ATOM     28  N   UNL     1      -0.732   5.747  -2.148  0.00  0.00    -0.235 NA
ATOM     29  C   UNL     1      -0.849   5.567  -0.815  0.00  0.00    +0.088 A 
ATOM     30  C   UNL     1      -1.753   6.324  -0.043  0.00  0.00    +0.063 A 
ATOM     31  C   UNL     1      -1.805   6.196   1.357  0.00  0.00    +0.015 A 
ATOM     32  C   UNL     1      -0.979   5.296   2.011  0.00  0.00    +0.002 A 
ATOM     33  C   UNL     1      -0.155   4.468   1.258  0.00  0.00    +0.013 A 
ATOM     34  C   UNL     1      -0.124   4.551  -0.158  0.00  0.00    +0.041 A 
BRANCH  30  35
ATOM     35  C   UNL     1      -2.796   7.212  -0.651  0.00  0.00    +0.244 C 
ATOM     36  N   UNL     1      -2.980   7.167  -2.002  0.00  0.00    -0.325 N 
ATOM     37  O   UNL     1      -3.519   7.920   0.041  0.00  0.00    -0.270 OA
ATOM     38  H   UNL     1      -3.706   7.730  -2.419  0.00  0.00    +0.145 HD
ATOM     39  H   UNL     1      -2.368   6.614  -2.595  0.00  0.00    +0.145 HD
ENDBRANCH  30  35
ENDBRANCH  23  25
ENDBRANCH  22  23
ENDBRANCH   1  22
TORSDOF 7
