
 OpenBabel10152418233D

 40 43  0  0  1  0  0  0  0  0999 V2000
    1.0240  -10.7470  -25.6640 C   0  0  2  0  0  3  0  0  0  0  0  0
    4.0860   -9.4740  -27.6000 C   0  0  0  0  0  0  0  0  0  0  0  0
    4.9430  -10.5700  -27.5150 C   0  0  0  0  0  3  0  0  0  0  0  0
    4.6280  -11.6360  -26.6760 C   0  0  0  0  0  3  0  0  0  0  0  0
    3.4040  -11.6590  -26.0070 C   0  0  0  0  0  3  0  0  0  0  0  0
    2.4630  -10.6330  -26.1890 C   0  0  0  0  0  0  0  0  0  0  0  0
    2.8560   -9.4970  -26.9290 C   0  0  0  0  0  3  0  0  0  0  0  0
    3.6270   -7.5450  -29.1330 C   0  0  0  0  0  0  0  0  0  0  0  0
    3.9360   -7.1330  -30.2480 O   0  0  0  0  0  0  0  0  0  0  0  0
    4.4430   -8.4340  -28.4710 N   0  0  0  0  0  0  0  0  0  0  0  0
    5.4150   -8.3790  -28.7480 H   0  0  0  0  0  0  0  0  0  0  0  0
    0.1780   -5.7180  -27.3440 C   0  0  0  0  0  0  0  0  0  0  0  0
    0.2270   -7.0970  -27.5480 C   0  0  0  0  0  3  0  0  0  0  0  0
    1.3780   -7.6950  -28.0730 C   0  0  0  0  0  3  0  0  0  0  0  0
    2.4890   -6.9110  -28.4070 C   0  0  0  0  0  0  0  0  0  0  0  0
    2.4180   -5.5210  -28.2380 C   0  0  0  0  0  3  0  0  0  0  0  0
    1.2680   -4.9280  -27.7050 C   0  0  0  0  0  3  0  0  0  0  0  0
   -0.9170   -3.9160  -26.3010 C   0  0  0  0  0  1  0  0  0  0  0  0
   -1.0020   -5.2300  -26.8520 O   0  0  0  0  0  0  0  0  0  0  0  0
    0.9290  -11.5690  -24.4640 N   0  0  0  0  0  0  0  0  0  0  0  0
    1.6320  -12.2900  -24.3540 H   0  0  0  0  0  0  0  0  0  0  0  0
    0.2690  -11.0190  -23.3730 C   0  0  0  0  0  0  0  0  0  0  0  0
   -0.3370  -11.8850  -22.5400 N   0  0  0  0  0  0  0  0  0  0  0  0
   -1.3280  -11.4030  -21.7940 C   0  0  0  0  0  3  0  0  0  0  0  0
   -1.8230  -10.1700  -21.8820 N   0  0  0  0  0  0  0  0  0  0  0  0
   -1.1690   -9.2990  -22.6730 C   0  0  0  0  0  0  0  0  0  0  0  0
   -1.6730   -8.0260  -22.9340 C   0  0  0  0  0  0  0  0  0  0  0  0
   -0.9600   -7.0350  -23.6250 C   0  0  0  0  0  3  0  0  0  0  0  0
    0.2840   -7.3410  -24.1500 C   0  0  0  0  0  3  0  0  0  0  0  0
    0.7340   -8.6540  -24.0690 C   0  0  0  0  0  3  0  0  0  0  0  0
   -0.0040   -9.6440  -23.3590 C   0  0  0  0  0  0  0  0  0  0  0  0
   -3.1320   -7.8350  -22.8250 C   0  0  0  0  0  0  0  0  0  0  0  0
   -3.5650   -7.8050  -21.5190 N   0  0  0  0  0  0  0  0  0  0  0  0
   -3.8770   -7.7660  -23.7780 O   0  0  0  0  0  0  0  0  0  0  0  0
   -4.5500   -7.6890  -21.3330 H   0  0  0  0  0  0  0  0  0  0  0  0
   -2.9220   -7.8400  -20.7370 H   0  0  0  0  0  0  0  0  0  0  0  0
    0.0200  -11.2500  -26.7280 C   0  0  0  0  0  2  0  0  0  0  0  0
   -1.3690  -10.6150  -26.7580 C   0  0  0  0  0  2  0  0  0  0  0  0
   -2.1680  -11.0360  -25.6550 O   0  0  0  0  0  0  0  0  0  0  0  0
   -2.9890  -10.5110  -25.6950 H   0  0  0  0  0  0  0  0  0  0  0  0
  1 37  1  6  0  0  0
  1 20  1  0  0  0  0
  2  3  2  0  0  0  0
  2  7  1  0  0  0  0
  3  4  1  0  0  0  0
  4  5  2  0  0  0  0
  6  5  1  0  0  0  0
  6  1  1  0  0  0  0
  7  6  2  0  0  0  0
  8 10  1  0  0  0  0
  8 15  1  0  0  0  0
  9  8  2  0  0  0  0
 10  2  1  0  0  0  0
 11 10  1  0  0  0  0
 12 19  1  0  0  0  0
 13 12  1  0  0  0  0
 14 13  2  0  0  0  0
 15 16  2  0  0  0  0
 15 14  1  0  0  0  0
 16 17  1  0  0  0  0
 17 12  2  0  0  0  0
 19 18  1  0  0  0  0
 20 21  1  0  0  0  0
 20 22  1  0  0  0  0
 22 31  2  0  0  0  0
 22 23  1  0  0  0  0
 23 24  2  0  0  0  0
 25 24  1  0  0  0  0
 26 25  2  0  0  0  0
 27 32  1  0  0  0  0
 27 26  1  0  0  0  0
 28 27  2  0  0  0  0
 29 30  2  0  0  0  0
 29 28  1  0  0  0  0
 30 31  1  0  0  0  0
 31 26  1  0  0  0  0
 32 33  1  0  0  0  0
 33 35  1  0  0  0  0
 33 36  1  0  0  0  0
 34 32  2  0  0  0  0
 38 37  1  0  0  0  0
 38 39  1  0  0  0  0
 40 39  1  0  0  0  0
M  END
>  <minimizedAffinity>
-7.086586

$$$$
