
 OpenBabel10152418233D

 40 43  0  0  1  0  0  0  0  0999 V2000
   -0.0930   -7.0100  -25.5460 C   0  0  2  0  0  3  0  0  0  0  0  0
    1.9730   -6.1260  -28.6580 C   0  0  0  0  0  0  0  0  0  0  0  0
    1.8660   -4.7360  -28.6770 C   0  0  0  0  0  3  0  0  0  0  0  0
    0.9760   -4.0960  -27.8190 C   0  0  0  0  0  3  0  0  0  0  0  0
    0.2740   -4.8330  -26.8640 C   0  0  0  0  0  3  0  0  0  0  0  0
    0.4740   -6.2170  -26.7320 C   0  0  0  0  0  0  0  0  0  0  0  0
    1.2700   -6.8670  -27.6990 C   0  0  0  0  0  3  0  0  0  0  0  0
    3.9400   -7.5660  -29.2390 C   0  0  0  0  0  0  0  0  0  0  0  0
    4.9740   -7.5270  -29.9030 O   0  0  0  0  0  0  0  0  0  0  0  0
    2.8960   -6.7200  -29.5320 N   0  0  0  0  0  0  0  0  0  0  0  0
    2.8760   -6.4160  -30.4980 H   0  0  0  0  0  0  0  0  0  0  0  0
    3.0110  -10.7570  -26.5210 C   0  0  0  0  0  0  0  0  0  0  0  0
    3.1740  -11.0080  -27.8840 C   0  0  0  0  0  3  0  0  0  0  0  0
    3.5390   -9.9750  -28.7560 C   0  0  0  0  0  3  0  0  0  0  0  0
    3.7350   -8.6780  -28.2670 C   0  0  0  0  0  0  0  0  0  0  0  0
    3.5290   -8.4250  -26.9040 C   0  0  0  0  0  3  0  0  0  0  0  0
    3.1730   -9.4620  -26.0340 C   0  0  0  0  0  3  0  0  0  0  0  0
    2.6770  -11.6030  -24.3520 C   0  0  0  0  0  1  0  0  0  0  0  0
    2.6280  -11.8280  -25.7600 O   0  0  0  0  0  0  0  0  0  0  0  0
   -1.5510   -7.0220  -25.5260 N   0  0  0  0  0  0  0  0  0  0  0  0
   -2.0170   -6.6290  -26.3350 H   0  0  0  0  0  0  0  0  0  0  0  0
   -2.1640   -7.9740  -24.7210 C   0  0  0  0  0  0  0  0  0  0  0  0
   -2.7960   -7.5170  -23.6250 N   0  0  0  0  0  0  0  0  0  0  0  0
   -2.9730   -8.3830  -22.6310 C   0  0  0  0  0  3  0  0  0  0  0  0
   -2.4900   -9.6230  -22.6010 N   0  0  0  0  0  0  0  0  0  0  0  0
   -1.9140  -10.0870  -23.7260 C   0  0  0  0  0  0  0  0  0  0  0  0
   -1.2660  -11.3210  -23.7630 C   0  0  0  0  0  0  0  0  0  0  0  0
   -0.7840  -11.9120  -24.9410 C   0  0  0  0  0  3  0  0  0  0  0  0
   -0.8820  -11.2140  -26.1330 C   0  0  0  0  0  3  0  0  0  0  0  0
   -1.3550   -9.9060  -26.1010 C   0  0  0  0  0  3  0  0  0  0  0  0
   -1.8420   -9.3280  -24.8950 C   0  0  0  0  0  0  0  0  0  0  0  0
   -0.7240  -11.8430  -22.4930 C   0  0  0  0  0  0  0  0  0  0  0  0
   -1.7010  -12.0380  -21.5430 N   0  0  0  0  0  0  0  0  0  0  0  0
    0.4550  -12.0320  -22.2890 O   0  0  0  0  0  0  0  0  0  0  0  0
   -1.4350  -12.3840  -20.6340 H   0  0  0  0  0  0  0  0  0  0  0  0
   -2.6840  -11.8980  -21.7440 H   0  0  0  0  0  0  0  0  0  0  0  0
    0.4480   -6.5370  -24.1760 C   0  0  0  0  0  2  0  0  0  0  0  0
   -0.1330   -5.2550  -23.5810 C   0  0  0  0  0  2  0  0  0  0  0  0
   -1.0650   -5.5290  -22.5370 O   0  0  0  0  0  0  0  0  0  0  0  0
   -1.3040   -4.6670  -22.1510 H   0  0  0  0  0  0  0  0  0  0  0  0
  1 20  1  0  0  0  0
  1 37  1  1  0  0  0
  2  7  1  0  0  0  0
  3  2  2  0  0  0  0
  3  4  1  0  0  0  0
  4  5  2  0  0  0  0
  5  6  1  0  0  0  0
  6  1  1  0  0  0  0
  7  6  2  0  0  0  0
  8 15  1  0  0  0  0
  9  8  2  0  0  0  0
 10  8  1  0  0  0  0
 10  2  1  0  0  0  0
 11 10  1  0  0  0  0
 12 17  1  0  0  0  0
 12 19  1  0  0  0  0
 13 12  2  0  0  0  0
 14 15  2  0  0  0  0
 14 13  1  0  0  0  0
 15 16  1  0  0  0  0
 16 17  2  0  0  0  0
 19 18  1  0  0  0  0
 20 22  1  0  0  0  0
 21 20  1  0  0  0  0
 22 23  1  0  0  0  0
 23 24  2  0  0  0  0
 24 25  1  0  0  0  0
 26 25  2  0  0  0  0
 27 26  1  0  0  0  0
 27 32  1  0  0  0  0
 28 27  2  0  0  0  0
 29 30  2  0  0  0  0
 29 28  1  0  0  0  0
 30 31  1  0  0  0  0
 31 22  2  0  0  0  0
 31 26  1  0  0  0  0
 32 34  2  0  0  0  0
 32 33  1  0  0  0  0
 33 35  1  0  0  0  0
 36 33  1  0  0  0  0
 37 38  1  0  0  0  0
 38 39  1  0  0  0  0
 39 40  1  0  0  0  0
M  END
>  <minimizedAffinity>
-7.88409519

$$$$

 OpenBabel10152418233D

 40 43  0  0  1  0  0  0  0  0999 V2000
    0.0620  -11.4380  -24.9900 C   0  0  2  0  0  3  0  0  0  0  0  0
   -1.6670   -9.3030  -22.3090 C   0  0  0  0  0  0  0  0  0  0  0  0
   -1.5690  -10.1290  -21.1910 C   0  0  0  0  0  3  0  0  0  0  0  0
   -1.1320  -11.4430  -21.3330 C   0  0  0  0  0  3  0  0  0  0  0  0
   -0.6870  -11.9000  -22.5740 C   0  0  0  0  0  3  0  0  0  0  0  0
   -0.6420  -11.0420  -23.6850 C   0  0  0  0  0  0  0  0  0  0  0  0
   -1.2190   -9.7610  -23.5550 C   0  0  0  0  0  3  0  0  0  0  0  0
   -1.5290   -6.8130  -22.5530 C   0  0  0  0  0  0  0  0  0  0  0  0
   -1.5950   -5.7930  -21.8710 O   0  0  0  0  0  0  0  0  0  0  0  0
   -2.0990   -7.9830  -22.1090 N   0  0  0  0  0  0  0  0  0  0  0  0
   -2.8680   -7.8440  -21.4650 H   0  0  0  0  0  0  0  0  0  0  0  0
   -0.2480   -6.2420  -26.6120 C   0  0  0  0  0  0  0  0  0  0  0  0
    0.4690   -5.6830  -25.5530 C   0  0  0  0  0  3  0  0  0  0  0  0
    0.0830   -5.9240  -24.2300 C   0  0  0  0  0  3  0  0  0  0  0  0
   -1.0320   -6.7240  -23.9570 C   0  0  0  0  0  0  0  0  0  0  0  0
   -1.7720   -7.2500  -25.0250 C   0  0  0  0  0  3  0  0  0  0  0  0
   -1.3780   -7.0130  -26.3470 C   0  0  0  0  0  3  0  0  0  0  0  0
    1.2310   -4.9420  -27.8980 C   0  0  0  0  0  1  0  0  0  0  0  0
    0.1950   -5.9230  -27.8670 O   0  0  0  0  0  0  0  0  0  0  0  0
    1.4940  -11.6450  -24.8140 N   0  0  0  0  0  0  0  0  0  0  0  0
    1.8320  -12.5910  -24.9410 H   0  0  0  0  0  0  0  0  0  0  0  0
    2.3190  -10.5420  -24.9990 C   0  0  0  0  0  0  0  0  0  0  0  0
    1.9360   -9.4000  -24.4020 N   0  0  0  0  0  0  0  0  0  0  0  0
    2.4100   -8.2680  -24.9160 C   0  0  0  0  0  3  0  0  0  0  0  0
    3.1440   -8.1780  -26.0230 N   0  0  0  0  0  0  0  0  0  0  0  0
    3.5700   -9.3300  -26.5750 C   0  0  0  0  0  0  0  0  0  0  0  0
    4.2340   -9.3540  -27.8000 C   0  0  0  0  0  0  0  0  0  0  0  0
    4.8260  -10.5060  -28.3400 C   0  0  0  0  0  3  0  0  0  0  0  0
    4.6910  -11.7110  -27.6720 C   0  0  0  0  0  3  0  0  0  0  0  0
    3.8780  -11.7570  -26.5440 C   0  0  0  0  0  3  0  0  0  0  0  0
    3.2900  -10.5750  -26.0100 C   0  0  0  0  0  0  0  0  0  0  0  0
    3.9780   -8.2420  -28.7360 C   0  0  0  0  0  0  0  0  0  0  0  0
    4.5580   -7.0630  -28.3260 N   0  0  0  0  0  0  0  0  0  0  0  0
    3.2900   -8.3400  -29.7290 O   0  0  0  0  0  0  0  0  0  0  0  0
    4.4340   -6.2370  -28.8910 H   0  0  0  0  0  0  0  0  0  0  0  0
    5.1490   -7.0100  -27.5060 H   0  0  0  0  0  0  0  0  0  0  0  0
   -0.1880  -10.4440  -26.1490 C   0  0  0  0  0  2  0  0  0  0  0  0
   -1.5290  -10.5160  -26.8770 C   0  0  0  0  0  2  0  0  0  0  0  0
   -2.4950  -11.2590  -26.1390 O   0  0  0  0  0  0  0  0  0  0  0  0
   -3.3380  -11.1680  -26.6200 H   0  0  0  0  0  0  0  0  0  0  0  0
  1 37  1  6  0  0  0
  1 20  1  0  0  0  0
  1  6  1  0  0  0  0
  2 10  1  0  0  0  0
  2  3  1  0  0  0  0
  4  3  2  0  0  0  0
  5  4  1  0  0  0  0
  6  7  1  0  0  0  0
  6  5  2  0  0  0  0
  7  2  2  0  0  0  0
  8 10  1  0  0  0  0
  8  9  2  0  0  0  0
 10 11  1  0  0  0  0
 12 17  2  0  0  0  0
 12 13  1  0  0  0  0
 13 14  2  0  0  0  0
 14 15  1  0  0  0  0
 15  8  1  0  0  0  0
 16 15  2  0  0  0  0
 17 16  1  0  0  0  0
 18 19  1  0  0  0  0
 19 12  1  0  0  0  0
 21 20  1  0  0  0  0
 22 20  1  0  0  0  0
 22 23  1  0  0  0  0
 24 23  2  0  0  0  0
 25 24  1  0  0  0  0
 26 25  2  0  0  0  0
 26 31  1  0  0  0  0
 27 26  1  0  0  0  0
 28 27  2  0  0  0  0
 28 29  1  0  0  0  0
 29 30  2  0  0  0  0
 30 31  1  0  0  0  0
 31 22  2  0  0  0  0
 32 33  1  0  0  0  0
 32 27  1  0  0  0  0
 33 36  1  0  0  0  0
 34 32  2  0  0  0  0
 35 33  1  0  0  0  0
 38 37  1  0  0  0  0
 38 39  1  0  0  0  0
 40 39  1  0  0  0  0
M  END
>  <minimizedAffinity>
-7.33420753

$$$$

 OpenBabel10152418233D

 40 43  0  0  1  0  0  0  0  0999 V2000
    1.0240  -10.7470  -25.6640 C   0  0  2  0  0  3  0  0  0  0  0  0
    4.0860   -9.4740  -27.6000 C   0  0  0  0  0  0  0  0  0  0  0  0
    4.9430  -10.5700  -27.5150 C   0  0  0  0  0  3  0  0  0  0  0  0
    4.6280  -11.6360  -26.6760 C   0  0  0  0  0  3  0  0  0  0  0  0
    3.4040  -11.6590  -26.0070 C   0  0  0  0  0  3  0  0  0  0  0  0
    2.4630  -10.6330  -26.1890 C   0  0  0  0  0  0  0  0  0  0  0  0
    2.8560   -9.4970  -26.9290 C   0  0  0  0  0  3  0  0  0  0  0  0
    3.6270   -7.5450  -29.1330 C   0  0  0  0  0  0  0  0  0  0  0  0
    3.9360   -7.1330  -30.2480 O   0  0  0  0  0  0  0  0  0  0  0  0
    4.4430   -8.4340  -28.4710 N   0  0  0  0  0  0  0  0  0  0  0  0
    5.4150   -8.3790  -28.7480 H   0  0  0  0  0  0  0  0  0  0  0  0
    0.1780   -5.7180  -27.3440 C   0  0  0  0  0  0  0  0  0  0  0  0
    0.2270   -7.0970  -27.5480 C   0  0  0  0  0  3  0  0  0  0  0  0
    1.3780   -7.6950  -28.0730 C   0  0  0  0  0  3  0  0  0  0  0  0
    2.4890   -6.9110  -28.4070 C   0  0  0  0  0  0  0  0  0  0  0  0
    2.4180   -5.5210  -28.2380 C   0  0  0  0  0  3  0  0  0  0  0  0
    1.2680   -4.9280  -27.7050 C   0  0  0  0  0  3  0  0  0  0  0  0
   -0.9170   -3.9160  -26.3010 C   0  0  0  0  0  1  0  0  0  0  0  0
   -1.0020   -5.2300  -26.8520 O   0  0  0  0  0  0  0  0  0  0  0  0
    0.9290  -11.5690  -24.4640 N   0  0  0  0  0  0  0  0  0  0  0  0
    1.6320  -12.2900  -24.3540 H   0  0  0  0  0  0  0  0  0  0  0  0
    0.2690  -11.0190  -23.3730 C   0  0  0  0  0  0  0  0  0  0  0  0
   -0.3370  -11.8850  -22.5400 N   0  0  0  0  0  0  0  0  0  0  0  0
   -1.3280  -11.4030  -21.7940 C   0  0  0  0  0  3  0  0  0  0  0  0
   -1.8230  -10.1700  -21.8820 N   0  0  0  0  0  0  0  0  0  0  0  0
   -1.1690   -9.2990  -22.6730 C   0  0  0  0  0  0  0  0  0  0  0  0
   -1.6730   -8.0260  -22.9340 C   0  0  0  0  0  0  0  0  0  0  0  0
   -0.9600   -7.0350  -23.6250 C   0  0  0  0  0  3  0  0  0  0  0  0
    0.2840   -7.3410  -24.1500 C   0  0  0  0  0  3  0  0  0  0  0  0
    0.7340   -8.6540  -24.0690 C   0  0  0  0  0  3  0  0  0  0  0  0
   -0.0040   -9.6440  -23.3590 C   0  0  0  0  0  0  0  0  0  0  0  0
   -3.1320   -7.8350  -22.8250 C   0  0  0  0  0  0  0  0  0  0  0  0
   -3.5650   -7.8050  -21.5190 N   0  0  0  0  0  0  0  0  0  0  0  0
   -3.8770   -7.7660  -23.7780 O   0  0  0  0  0  0  0  0  0  0  0  0
   -4.5500   -7.6890  -21.3330 H   0  0  0  0  0  0  0  0  0  0  0  0
   -2.9220   -7.8400  -20.7370 H   0  0  0  0  0  0  0  0  0  0  0  0
    0.0200  -11.2500  -26.7280 C   0  0  0  0  0  2  0  0  0  0  0  0
   -1.3690  -10.6150  -26.7580 C   0  0  0  0  0  2  0  0  0  0  0  0
   -2.1680  -11.0360  -25.6550 O   0  0  0  0  0  0  0  0  0  0  0  0
   -2.9890  -10.5110  -25.6950 H   0  0  0  0  0  0  0  0  0  0  0  0
  1 37  1  6  0  0  0
  1 20  1  0  0  0  0
  2  3  2  0  0  0  0
  2  7  1  0  0  0  0
  3  4  1  0  0  0  0
  4  5  2  0  0  0  0
  6  5  1  0  0  0  0
  6  1  1  0  0  0  0
  7  6  2  0  0  0  0
  8 10  1  0  0  0  0
  8 15  1  0  0  0  0
  9  8  2  0  0  0  0
 10  2  1  0  0  0  0
 11 10  1  0  0  0  0
 12 19  1  0  0  0  0
 13 12  1  0  0  0  0
 14 13  2  0  0  0  0
 15 16  2  0  0  0  0
 15 14  1  0  0  0  0
 16 17  1  0  0  0  0
 17 12  2  0  0  0  0
 19 18  1  0  0  0  0
 20 21  1  0  0  0  0
 20 22  1  0  0  0  0
 22 31  2  0  0  0  0
 22 23  1  0  0  0  0
 23 24  2  0  0  0  0
 25 24  1  0  0  0  0
 26 25  2  0  0  0  0
 27 32  1  0  0  0  0
 27 26  1  0  0  0  0
 28 27  2  0  0  0  0
 29 30  2  0  0  0  0
 29 28  1  0  0  0  0
 30 31  1  0  0  0  0
 31 26  1  0  0  0  0
 32 33  1  0  0  0  0
 33 35  1  0  0  0  0
 33 36  1  0  0  0  0
 34 32  2  0  0  0  0
 38 37  1  0  0  0  0
 38 39  1  0  0  0  0
 40 39  1  0  0  0  0
M  END
>  <minimizedAffinity>
-7.086586

$$$$

 OpenBabel10152418233D

 40 43  0  0  1  0  0  0  0  0999 V2000
    2.0070  -10.1390  -26.0870 C   0  0  2  0  0  3  0  0  0  0  0  0
    3.0230   -7.1270  -28.2390 C   0  0  0  0  0  0  0  0  0  0  0  0
    4.3910   -7.0530  -27.9840 C   0  0  0  0  0  3  0  0  0  0  0  0
    4.9550   -7.8330  -26.9790 C   0  0  0  0  0  3  0  0  0  0  0  0
    4.1730   -8.7700  -26.3010 C   0  0  0  0  0  3  0  0  0  0  0  0
    2.8230   -8.9620  -26.6390 C   0  0  0  0  0  0  0  0  0  0  0  0
    2.2370   -8.0670  -27.5600 C   0  0  0  0  0  3  0  0  0  0  0  0
    1.2670   -5.7470  -29.3760 C   0  0  0  0  0  0  0  0  0  0  0  0
    0.7300   -5.6230  -30.4740 O   0  0  0  0  0  0  0  0  0  0  0  0
    2.5090   -6.3300  -29.2730 N   0  0  0  0  0  0  0  0  0  0  0  0
    3.0680   -6.2500  -30.1130 H   0  0  0  0  0  0  0  0  0  0  0  0
   -0.7310   -3.7490  -26.1430 C   0  0  0  0  0  0  0  0  0  0  0  0
   -0.9150   -5.1150  -26.3570 C   0  0  0  0  0  3  0  0  0  0  0  0
   -0.2130   -5.7740  -27.3730 C   0  0  0  0  0  3  0  0  0  0  0  0
    0.6750   -5.0640  -28.1890 C   0  0  0  0  0  0  0  0  0  0  0  0
    0.8250   -3.6830  -27.9950 C   0  0  0  0  0  3  0  0  0  0  0  0
    0.1280   -3.0300  -26.9720 C   0  0  0  0  0  3  0  0  0  0  0  0
   -1.2950   -1.7920  -24.9650 C   0  0  0  0  0  1  0  0  0  0  0  0
   -1.4840   -3.1960  -25.1430 O   0  0  0  0  0  0  0  0  0  0  0  0
    1.6680   -9.9740  -24.6780 N   0  0  0  0  0  0  0  0  0  0  0  0
    2.4440   -9.9470  -24.0280 H   0  0  0  0  0  0  0  0  0  0  0  0
    0.4500   -9.3730  -24.3870 C   0  0  0  0  0  0  0  0  0  0  0  0
    0.2750   -8.1190  -24.8410 N   0  0  0  0  0  0  0  0  0  0  0  0
   -0.6310   -7.3760  -24.2120 C   0  0  0  0  0  3  0  0  0  0  0  0
   -1.2970   -7.7430  -23.1190 N   0  0  0  0  0  0  0  0  0  0  0  0
   -1.1590   -9.0180  -22.7130 C   0  0  0  0  0  0  0  0  0  0  0  0
   -1.7090   -9.4700  -21.5140 C   0  0  0  0  0  0  0  0  0  0  0  0
   -1.7200  -10.8170  -21.1230 C   0  0  0  0  0  3  0  0  0  0  0  0
   -1.0910  -11.7570  -21.9220 C   0  0  0  0  0  3  0  0  0  0  0  0
   -0.3730  -11.3150  -23.0280 C   0  0  0  0  0  3  0  0  0  0  0  0
   -0.3780   -9.9420  -23.4090 C   0  0  0  0  0  0  0  0  0  0  0  0
   -1.9380   -8.4720  -20.4520 C   0  0  0  0  0  0  0  0  0  0  0  0
   -2.4960   -7.3090  -20.9310 N   0  0  0  0  0  0  0  0  0  0  0  0
   -1.6230   -8.6340  -19.2930 O   0  0  0  0  0  0  0  0  0  0  0  0
   -2.6850   -6.5560  -20.2870 H   0  0  0  0  0  0  0  0  0  0  0  0
   -2.7740   -7.2040  -21.9000 H   0  0  0  0  0  0  0  0  0  0  0  0
    2.6820  -11.5130  -26.3080 C   0  0  0  0  0  2  0  0  0  0  0  0
    3.2240  -11.8280  -27.7010 C   0  0  0  0  0  2  0  0  0  0  0  0
    4.6340  -12.0390  -27.6880 O   0  0  0  0  0  0  0  0  0  0  0  0
    4.8760  -12.3310  -28.5850 H   0  0  0  0  0  0  0  0  0  0  0  0
  1 37  1  1  0  0  0
  1 20  1  0  0  0  0
  2  3  2  0  0  0  0
  2  7  1  0  0  0  0
  3  4  1  0  0  0  0
  4  5  2  0  0  0  0
  6  5  1  0  0  0  0
  6  1  1  0  0  0  0
  7  6  2  0  0  0  0
  8 10  1  0  0  0  0
  8 15  1  0  0  0  0
  9  8  2  0  0  0  0
 10  2  1  0  0  0  0
 11 10  1  0  0  0  0
 12 19  1  0  0  0  0
 13 12  1  0  0  0  0
 14 13  2  0  0  0  0
 15 16  2  0  0  0  0
 15 14  1  0  0  0  0
 16 17  1  0  0  0  0
 17 12  2  0  0  0  0
 19 18  1  0  0  0  0
 20 22  1  0  0  0  0
 20 21  1  0  0  0  0
 22 31  1  0  0  0  0
 23 22  2  0  0  0  0
 23 24  1  0  0  0  0
 24 25  2  0  0  0  0
 25 26  1  0  0  0  0
 26 27  1  0  0  0  0
 27 28  2  0  0  0  0
 27 32  1  0  0  0  0
 29 28  1  0  0  0  0
 30 29  2  0  0  0  0
 31 30  1  0  0  0  0
 31 26  2  0  0  0  0
 32 34  2  0  0  0  0
 33 32  1  0  0  0  0
 33 35  1  0  0  0  0
 36 33  1  0  0  0  0
 38 39  1  0  0  0  0
 38 37  1  0  0  0  0
 40 39  1  0  0  0  0
M  END
>  <minimizedAffinity>
-5.52385569

$$$$

 OpenBabel10152418233D

 40 43  0  0  1  0  0  0  0  0999 V2000
    2.1150  -10.4880  -26.6180 C   0  0  2  0  0  3  0  0  0  0  0  0
    2.9670   -7.1410  -28.2950 C   0  0  0  0  0  0  0  0  0  0  0  0
    4.2540   -6.9090  -27.8140 C   0  0  0  0  0  3  0  0  0  0  0  0
    4.7740   -7.7130  -26.8030 C   0  0  0  0  0  3  0  0  0  0  0  0
    4.0530   -8.8180  -26.3500 C   0  0  0  0  0  3  0  0  0  0  0  0
    2.8150   -9.1550  -26.9210 C   0  0  0  0  0  0  0  0  0  0  0  0
    2.2420   -8.2510  -27.8420 C   0  0  0  0  0  3  0  0  0  0  0  0
    1.2670   -5.7080  -29.4510 C   0  0  0  0  0  0  0  0  0  0  0  0
    0.7670   -5.5480  -30.5620 O   0  0  0  0  0  0  0  0  0  0  0  0
    2.4970   -6.3110  -29.3240 N   0  0  0  0  0  0  0  0  0  0  0  0
    3.0830   -6.2180  -30.1440 H   0  0  0  0  0  0  0  0  0  0  0  0
   -0.7960   -3.7400  -26.2400 C   0  0  0  0  0  0  0  0  0  0  0  0
   -1.0660   -5.0740  -26.5490 C   0  0  0  0  0  3  0  0  0  0  0  0
   -0.3470   -5.7280  -27.5540 C   0  0  0  0  0  3  0  0  0  0  0  0
    0.6470   -5.0470  -28.2660 C   0  0  0  0  0  0  0  0  0  0  0  0
    0.8860   -3.6950  -27.9800 C   0  0  0  0  0  3  0  0  0  0  0  0
    0.1700   -3.0470  -26.9680 C   0  0  0  0  0  3  0  0  0  0  0  0
   -1.2980   -1.8100  -24.9920 C   0  0  0  0  0  1  0  0  0  0  0  0
   -1.5730   -3.1850  -25.2600 O   0  0  0  0  0  0  0  0  0  0  0  0
    0.7050  -10.3180  -26.2890 N   0  0  0  0  0  0  0  0  0  0  0  0
    0.0390  -10.6240  -26.9880 H   0  0  0  0  0  0  0  0  0  0  0  0
    0.3740  -10.2540  -24.9410 C   0  0  0  0  0  0  0  0  0  0  0  0
   -0.0640  -11.3930  -24.3760 N   0  0  0  0  0  0  0  0  0  0  0  0
   -0.8040  -11.2700  -23.2780 C   0  0  0  0  0  3  0  0  0  0  0  0
   -1.2200  -10.1160  -22.7600 N   0  0  0  0  0  0  0  0  0  0  0  0
   -0.7240   -8.9860  -23.2970 C   0  0  0  0  0  0  0  0  0  0  0  0
   -1.1890   -7.7280  -22.9160 C   0  0  0  0  0  0  0  0  0  0  0  0
   -0.6030   -6.5240  -23.3350 C   0  0  0  0  0  3  0  0  0  0  0  0
    0.4490   -6.5620  -24.2350 C   0  0  0  0  0  3  0  0  0  0  0  0
    0.8140   -7.7900  -24.7770 C   0  0  0  0  0  3  0  0  0  0  0  0
    0.2090   -9.0010  -24.3350 C   0  0  0  0  0  0  0  0  0  0  0  0
   -2.5590   -7.6430  -22.3750 C   0  0  0  0  0  0  0  0  0  0  0  0
   -2.5810   -7.5690  -21.0010 N   0  0  0  0  0  0  0  0  0  0  0  0
   -3.5580   -7.6860  -23.0590 O   0  0  0  0  0  0  0  0  0  0  0  0
   -3.4710   -7.5180  -20.5290 H   0  0  0  0  0  0  0  0  0  0  0  0
   -1.7320   -7.5100  -20.4510 H   0  0  0  0  0  0  0  0  0  0  0  0
    2.8180  -11.3130  -25.5140 C   0  0  0  0  0  2  0  0  0  0  0  0
    4.1340  -12.0040  -25.8650 C   0  0  0  0  0  2  0  0  0  0  0  0
    4.3570  -12.0390  -27.2720 O   0  0  0  0  0  0  0  0  0  0  0  0
    5.2530  -12.3990  -27.4000 H   0  0  0  0  0  0  0  0  0  0  0  0
  1 20  1  0  0  0  0
  1 37  1  1  0  0  0
  2  7  2  0  0  0  0
  2  3  1  0  0  0  0
  3  4  2  0  0  0  0
  4  5  1  0  0  0  0
  6  1  1  0  0  0  0
  6  5  2  0  0  0  0
  7  6  1  0  0  0  0
  8 10  1  0  0  0  0
  8 15  1  0  0  0  0
  9  8  2  0  0  0  0
 10  2  1  0  0  0  0
 11 10  1  0  0  0  0
 12 19  1  0  0  0  0
 13 12  1  0  0  0  0
 14 13  2  0  0  0  0
 15 16  2  0  0  0  0
 15 14  1  0  0  0  0
 16 17  1  0  0  0  0
 17 12  2  0  0  0  0
 19 18  1  0  0  0  0
 20 22  1  0  0  0  0
 21 20  1  0  0  0  0
 22 23  2  0  0  0  0
 22 31  1  0  0  0  0
 23 24  1  0  0  0  0
 24 25  2  0  0  0  0
 26 27  1  0  0  0  0
 26 25  1  0  0  0  0
 27 32  1  0  0  0  0
 28 27  2  0  0  0  0
 29 28  1  0  0  0  0
 30 31  1  0  0  0  0
 30 29  2  0  0  0  0
 31 26  2  0  0  0  0
 32 33  1  0  0  0  0
 33 35  1  0  0  0  0
 33 36  1  0  0  0  0
 34 32  2  0  0  0  0
 38 37  1  0  0  0  0
 39 38  1  0  0  0  0
 40 39  1  0  0  0  0
M  END
>  <minimizedAffinity>
-5.36735535

$$$$
