REMARK  Name = 
REMARK  9 active torsions:
REMARK  status: ('A' for Active; 'I' for Inactive)
REMARK    1  A    between atoms: C_1  and  O_2
REMARK    2  A    between atoms: O_2  and  C_3
REMARK    3  A    between atoms: C_6  and  C_7
REMARK    4  A    between atoms: N_9  and  C_10
REMARK    5  A    between atoms: C_14  and  C_15
REMARK    6  A    between atoms: C_15  and  N_16
REMARK    7  A    between atoms: N_16  and  C_17
REMARK    8  A    between atoms: C_22  and  C_23
REMARK    9  A    between atoms: C_27  and  O_28
REMARK                            x       y       z     vdW  Elec       q    Type
REMARK                         _______ _______ _______ _____ _____    ______ ____
ROOT
ATOM      1  C   UNL     1       5.336   0.530  -2.812  0.00  0.00    +0.138 C 
ENDROOT
BRANCH   1   6
ATOM      2  C   UNL     1       4.509   4.273  -2.947  0.00  0.00    +0.034 A 
ATOM      3  C   UNL     1       5.636   4.834  -2.346  0.00  0.00    +0.023 A 
ATOM      4  C   UNL     1       6.628   4.009  -1.825  0.00  0.00    +0.002 A 
ATOM      5  C   UNL     1       6.511   2.625  -1.942  0.00  0.00    +0.005 A 
ATOM      6  C   UNL     1       5.445   2.038  -2.642  0.00  0.00    -0.029 A 
ATOM      7  C   UNL     1       4.445   2.886  -3.142  0.00  0.00    +0.028 A 
BRANCH   2  10
ATOM      8  C   UNL     1       2.128   4.931  -3.464  0.00  0.00    +0.248 C 
ATOM      9  O   UNL     1       1.424   5.743  -4.060  0.00  0.00    -0.270 OA
ATOM     10  N   UNL     1       3.481   5.153  -3.326  0.00  0.00    -0.281 N 
ATOM     11  H   UNL     1       3.737   6.116  -3.510  0.00  0.00    +0.155 HD
BRANCH   8  15
ATOM     12  C   UNL     1       0.309   1.510  -1.638  0.00  0.00    +0.120 A 
ATOM     13  C   UNL     1      -0.053   1.911  -2.928  0.00  0.00    +0.046 A 
ATOM     14  C   UNL     1       0.527   3.038  -3.515  0.00  0.00    +0.016 A 
ATOM     15  C   UNL     1       1.483   3.768  -2.807  0.00  0.00    +0.037 A 
ATOM     16  C   UNL     1       1.795   3.413  -1.488  0.00  0.00    +0.016 A 
ATOM     17  C   UNL     1       1.220   2.277  -0.910  0.00  0.00    +0.046 A 
BRANCH  12  19
ATOM     18  C   UNL     1       0.243  -0.233  -0.028  0.00  0.00    +0.277 C 
ATOM     19  O   UNL     1      -0.302   0.369  -1.197  0.00  0.00    -0.495 OA
ENDBRANCH  12  19
ENDBRANCH   8  15
ENDBRANCH   2  10
ENDBRANCH   1   6
BRANCH   1  20
ATOM     20  N   UNL     1       6.445  -0.011  -3.578  0.00  0.00    -0.324 N 
ATOM     21  H   UNL     1       6.361  -0.066  -4.580  0.00  0.00    +0.148 HD
BRANCH  20  22
ATOM     22  C   UNL     1       7.675  -0.181  -2.962  0.00  0.00    +0.130 A 
ATOM     23  N   UNL     1       7.654  -0.597  -1.683  0.00  0.00    -0.220 NA
ATOM     24  C   UNL     1       8.781  -0.469  -0.988  0.00  0.00    +0.223 A 
ATOM     25  N   UNL     1       9.896   0.120  -1.422  0.00  0.00    -0.235 NA
ATOM     26  C   UNL     1       9.941   0.500  -2.714  0.00  0.00    +0.088 A 
ATOM     27  C   UNL     1      11.065   1.146  -3.247  0.00  0.00    +0.066 A 
ATOM     28  C   UNL     1      11.185   1.457  -4.610  0.00  0.00    +0.060 A 
ATOM     29  C   UNL     1      10.127   1.186  -5.452  0.00  0.00    +0.118 A 
ATOM     30  C   UNL     1       8.955   0.646  -4.944  0.00  0.00    +0.058 A 
ATOM     31  C   UNL     1       8.849   0.299  -3.573  0.00  0.00    +0.044 A 
BRANCH  27  32
ATOM     32  C   UNL     1      12.163   1.634  -2.380  0.00  0.00    +0.244 C 
ATOM     33  N   UNL     1      11.791   2.309  -1.250  0.00  0.00    -0.325 N 
ATOM     34  O   UNL     1      13.333   1.538  -2.718  0.00  0.00    -0.270 OA
ATOM     35  H   UNL     1      12.513   2.698  -0.660  0.00  0.00    +0.145 HD
ATOM     36  H   UNL     1      10.827   2.370  -0.950  0.00  0.00    +0.145 HD
ENDBRANCH  27  32
BRANCH  29  37
ATOM     37  O   UNL     1      10.180   1.466  -6.782  0.00  0.00    -0.507 OA
ATOM     38  H   UNL     1      11.071   1.786  -7.006  0.00  0.00    +0.292 HD
ENDBRANCH  29  37
ENDBRANCH  20  22
ENDBRANCH   1  20
TORSDOF 8
