
 OpenBabel10152420003D

 36 39  0  0  0  0  0  0  0  0999 V2000
    0.5870  -12.1300  -24.0680 C   0  0  0  0  0  0  0  0  0  0  0  0
    0.0470  -12.9370  -25.0700 C   0  0  0  0  0  3  0  0  0  0  0  0
    0.6190  -12.9500  -26.3410 C   0  0  0  0  0  3  0  0  0  0  0  0
    1.7510  -12.1750  -26.6090 C   0  0  0  0  0  3  0  0  0  0  0  0
    2.3550  -11.4030  -25.6060 C   0  0  0  0  0  0  0  0  0  0  0  0
    1.7570  -11.3960  -24.3380 C   0  0  0  0  0  3  0  0  0  0  0  0
   -2.3870   -9.0410  -22.4060 C   0  0  0  0  0  0  0  0  0  0  0  0
   -2.0160   -9.5690  -21.1900 C   0  0  0  0  0  3  0  0  0  0  0  0
   -1.2040  -10.6900  -21.2460 N   0  0  0  0  0  0  0  0  0  0  0  0
   -0.8960  -10.9700  -22.4960 C   0  0  0  0  0  0  0  0  0  0  0  0
   -0.0830  -11.9970  -22.8420 N   0  0  0  0  0  0  0  0  0  0  0  0
   -1.6960   -9.9650  -23.6600 S   0  0  0  0  0  0  0  0  0  0  0  0
    0.0840  -12.7220  -22.1560 H   0  0  0  0  0  0  0  0  0  0  0  0
   -3.1950   -7.8970  -22.7300 C   0  0  0  0  0  0  0  0  0  0  0  0
   -4.3990   -7.7870  -22.5350 O   0  0  0  0  0  0  0  0  0  0  0  0
   -2.4270   -6.9610  -23.3580 O   0  0  0  0  0  0  0  0  0  0  0  0
   -0.4640   -5.5070  -23.4250 C   0  0  0  0  0  1  0  0  0  0  0  0
   -1.2710   -6.5220  -22.6280 C   0  0  0  0  0  2  0  0  0  0  0  0
    3.5630  -10.5200  -25.8810 C   0  0  0  0  0  2  0  0  0  0  0  0
    3.2630   -9.1080  -25.6920 N   0  0  0  0  0  0  0  0  0  0  0  0
    3.6700   -8.6530  -24.8910 H   0  0  0  0  0  0  0  0  0  0  0  0
    2.9510   -8.3590  -26.8230 C   0  0  0  0  0  0  0  0  0  0  0  0
    3.9840   -7.9630  -27.5880 N   0  0  0  0  0  0  0  0  0  0  0  0
    3.7760   -6.9210  -28.3860 C   0  0  0  0  0  3  0  0  0  0  0  0
    2.6750   -6.1730  -28.3930 N   0  0  0  0  0  0  0  0  0  0  0  0
    1.6220   -6.6170  -27.6790 C   0  0  0  0  0  0  0  0  0  0  0  0
    0.4590   -5.8580  -27.5400 C   0  0  0  0  0  0  0  0  0  0  0  0
   -0.7210   -6.3490  -26.9660 C   0  0  0  0  0  3  0  0  0  0  0  0
   -0.7210   -7.6200  -26.4160 C   0  0  0  0  0  3  0  0  0  0  0  0
    0.4790   -8.3240  -26.3590 C   0  0  0  0  0  3  0  0  0  0  0  0
    1.6630   -7.8150  -26.9640 C   0  0  0  0  0  0  0  0  0  0  0  0
    0.5570   -4.3940  -27.6830 C   0  0  0  0  0  0  0  0  0  0  0  0
   -0.2450   -3.7060  -26.8090 N   0  0  0  0  0  0  0  0  0  0  0  0
    1.1960   -3.8560  -28.5730 O   0  0  0  0  0  0  0  0  0  0  0  0
   -0.2690   -2.6970  -26.8560 H   0  0  0  0  0  0  0  0  0  0  0  0
   -0.8100   -4.1720  -26.1100 H   0  0  0  0  0  0  0  0  0  0  0  0
  1 11  1  0  0  0  0
  2  1  2  0  0  0  0
  3  2  1  0  0  0  0
  4  3  2  0  0  0  0
  4  5  1  0  0  0  0
  5  6  2  0  0  0  0
  6  1  1  0  0  0  0
  7  8  2  0  0  0  0
  9  8  1  0  0  0  0
 10  9  2  0  0  0  0
 11 10  1  0  0  0  0
 11 13  1  0  0  0  0
 12 10  1  0  0  0  0
 12  7  1  0  0  0  0
 14 15  2  0  0  0  0
 14  7  1  0  0  0  0
 16 14  1  0  0  0  0
 16 18  1  0  0  0  0
 17 18  1  0  0  0  0
 19 20  1  0  0  0  0
 19  5  1  0  0  0  0
 20 21  1  0  0  0  0
 22 20  1  0  0  0  0
 23 22  2  0  0  0  0
 24 23  1  0  0  0  0
 25 24  2  0  0  0  0
 25 26  1  0  0  0  0
 26 27  2  0  0  0  0
 26 31  1  0  0  0  0
 27 28  1  0  0  0  0
 28 29  2  0  0  0  0
 29 30  1  0  0  0  0
 31 22  1  0  0  0  0
 31 30  2  0  0  0  0
 32 27  1  0  0  0  0
 32 33  1  0  0  0  0
 33 36  1  0  0  0  0
 34 32  2  0  0  0  0
 35 33  1  0  0  0  0
M  END
>  <minimizedAffinity>
-8.51070595

$$$$
