
 OpenBabel10152420003D

 36 39  0  0  0  0  0  0  0  0999 V2000
    4.2310  -11.5160  -28.6410 C   0  0  0  0  0  0  0  0  0  0  0  0
    3.9220  -12.0020  -29.9120 C   0  0  0  0  0  3  0  0  0  0  0  0
    3.7740  -11.1200  -30.9810 C   0  0  0  0  0  3  0  0  0  0  0  0
    3.9600   -9.7480  -30.7900 C   0  0  0  0  0  3  0  0  0  0  0  0
    4.3330   -9.2350  -29.5390 C   0  0  0  0  0  0  0  0  0  0  0  0
    4.4660  -10.1390  -28.4750 C   0  0  0  0  0  3  0  0  0  0  0  0
    1.3050  -12.1760  -25.1550 C   0  0  0  0  0  0  0  0  0  0  0  0
    2.3870  -12.7930  -24.5690 C   0  0  0  0  0  3  0  0  0  0  0  0
    3.4970  -12.9580  -25.3820 N   0  0  0  0  0  0  0  0  0  0  0  0
    3.2870  -12.4040  -26.5580 C   0  0  0  0  0  0  0  0  0  0  0  0
    4.2210  -12.3860  -27.5400 N   0  0  0  0  0  0  0  0  0  0  0  0
    1.6830  -11.7840  -26.7700 S   0  0  0  0  0  0  0  0  0  0  0  0
    4.9970  -13.0320  -27.4700 H   0  0  0  0  0  0  0  0  0  0  0  0
    0.0140  -11.8310  -24.6250 C   0  0  0  0  0  0  0  0  0  0  0  0
   -1.0260  -11.7370  -25.2640 O   0  0  0  0  0  0  0  0  0  0  0  0
    0.1290  -11.5550  -23.2940 O   0  0  0  0  0  0  0  0  0  0  0  0
   -1.2420   -9.7780  -22.3270 C   0  0  0  0  0  1  0  0  0  0  0  0
   -1.1030  -11.2660  -22.6160 C   0  0  0  0  0  2  0  0  0  0  0  0
    4.5020   -7.7430  -29.2930 C   0  0  0  0  0  2  0  0  0  0  0  0
    3.2330   -7.0880  -29.0110 N   0  0  0  0  0  0  0  0  0  0  0  0
    2.5500   -7.0670  -29.7500 H   0  0  0  0  0  0  0  0  0  0  0  0
    2.8120   -7.0430  -27.6860 C   0  0  0  0  0  0  0  0  0  0  0  0
    3.4060   -7.8980  -26.8340 N   0  0  0  0  0  0  0  0  0  0  0  0
    2.7500   -8.1860  -25.7150 C   0  0  0  0  0  3  0  0  0  0  0  0
    1.5090   -7.7930  -25.4350 N   0  0  0  0  0  0  0  0  0  0  0  0
    0.9500   -6.8820  -26.2560 C   0  0  0  0  0  0  0  0  0  0  0  0
   -0.3780   -6.4810  -26.1080 C   0  0  0  0  0  0  0  0  0  0  0  0
   -0.9470   -5.4120  -26.8150 C   0  0  0  0  0  3  0  0  0  0  0  0
   -0.1940   -4.7720  -27.7830 C   0  0  0  0  0  3  0  0  0  0  0  0
    1.0660   -5.2780  -28.0940 C   0  0  0  0  0  3  0  0  0  0  0  0
    1.6330   -6.3530  -27.3530 C   0  0  0  0  0  0  0  0  0  0  0  0
   -1.3190   -7.4050  -25.4510 C   0  0  0  0  0  0  0  0  0  0  0  0
   -1.2750   -8.6800  -25.9570 N   0  0  0  0  0  0  0  0  0  0  0  0
   -2.1390   -7.0400  -24.6240 O   0  0  0  0  0  0  0  0  0  0  0  0
   -1.9100   -9.3750  -25.5890 H   0  0  0  0  0  0  0  0  0  0  0  0
   -0.6230   -8.9530  -26.6810 H   0  0  0  0  0  0  0  0  0  0  0  0
  1  6  1  0  0  0  0
  1 11  1  0  0  0  0
  2  1  2  0  0  0  0
  3  4  2  0  0  0  0
  3  2  1  0  0  0  0
  4  5  1  0  0  0  0
  5 19  1  0  0  0  0
  5  6  2  0  0  0  0
  7 14  1  0  0  0  0
  7  8  2  0  0  0  0
  9  8  1  0  0  0  0
 10  9  2  0  0  0  0
 11 13  1  0  0  0  0
 11 10  1  0  0  0  0
 12 10  1  0  0  0  0
 12  7  1  0  0  0  0
 14 16  1  0  0  0  0
 15 14  2  0  0  0  0
 16 18  1  0  0  0  0
 18 17  1  0  0  0  0
 19 20  1  0  0  0  0
 20 22  1  0  0  0  0
 21 20  1  0  0  0  0
 22 31  2  0  0  0  0
 22 23  1  0  0  0  0
 23 24  2  0  0  0  0
 24 25  1  0  0  0  0
 26 27  1  0  0  0  0
 26 25  2  0  0  0  0
 27 32  1  0  0  0  0
 28 27  2  0  0  0  0
 29 28  1  0  0  0  0
 30 29  2  0  0  0  0
 30 31  1  0  0  0  0
 31 26  1  0  0  0  0
 32 34  2  0  0  0  0
 33 35  1  0  0  0  0
 33 32  1  0  0  0  0
 36 33  1  0  0  0  0
M  END
>  <minimizedAffinity>
-8.5319643

$$$$

 OpenBabel10152420003D

 36 39  0  0  0  0  0  0  0  0999 V2000
    0.5870  -12.1300  -24.0680 C   0  0  0  0  0  0  0  0  0  0  0  0
    0.0470  -12.9370  -25.0700 C   0  0  0  0  0  3  0  0  0  0  0  0
    0.6190  -12.9500  -26.3410 C   0  0  0  0  0  3  0  0  0  0  0  0
    1.7510  -12.1750  -26.6090 C   0  0  0  0  0  3  0  0  0  0  0  0
    2.3550  -11.4030  -25.6060 C   0  0  0  0  0  0  0  0  0  0  0  0
    1.7570  -11.3960  -24.3380 C   0  0  0  0  0  3  0  0  0  0  0  0
   -2.3870   -9.0410  -22.4060 C   0  0  0  0  0  0  0  0  0  0  0  0
   -2.0160   -9.5690  -21.1900 C   0  0  0  0  0  3  0  0  0  0  0  0
   -1.2040  -10.6900  -21.2460 N   0  0  0  0  0  0  0  0  0  0  0  0
   -0.8960  -10.9700  -22.4960 C   0  0  0  0  0  0  0  0  0  0  0  0
   -0.0830  -11.9970  -22.8420 N   0  0  0  0  0  0  0  0  0  0  0  0
   -1.6960   -9.9650  -23.6600 S   0  0  0  0  0  0  0  0  0  0  0  0
    0.0840  -12.7220  -22.1560 H   0  0  0  0  0  0  0  0  0  0  0  0
   -3.1950   -7.8970  -22.7300 C   0  0  0  0  0  0  0  0  0  0  0  0
   -4.3990   -7.7870  -22.5350 O   0  0  0  0  0  0  0  0  0  0  0  0
   -2.4270   -6.9610  -23.3580 O   0  0  0  0  0  0  0  0  0  0  0  0
   -0.4640   -5.5070  -23.4250 C   0  0  0  0  0  1  0  0  0  0  0  0
   -1.2710   -6.5220  -22.6280 C   0  0  0  0  0  2  0  0  0  0  0  0
    3.5630  -10.5200  -25.8810 C   0  0  0  0  0  2  0  0  0  0  0  0
    3.2630   -9.1080  -25.6920 N   0  0  0  0  0  0  0  0  0  0  0  0
    3.6700   -8.6530  -24.8910 H   0  0  0  0  0  0  0  0  0  0  0  0
    2.9510   -8.3590  -26.8230 C   0  0  0  0  0  0  0  0  0  0  0  0
    3.9840   -7.9630  -27.5880 N   0  0  0  0  0  0  0  0  0  0  0  0
    3.7760   -6.9210  -28.3860 C   0  0  0  0  0  3  0  0  0  0  0  0
    2.6750   -6.1730  -28.3930 N   0  0  0  0  0  0  0  0  0  0  0  0
    1.6220   -6.6170  -27.6790 C   0  0  0  0  0  0  0  0  0  0  0  0
    0.4590   -5.8580  -27.5400 C   0  0  0  0  0  0  0  0  0  0  0  0
   -0.7210   -6.3490  -26.9660 C   0  0  0  0  0  3  0  0  0  0  0  0
   -0.7210   -7.6200  -26.4160 C   0  0  0  0  0  3  0  0  0  0  0  0
    0.4790   -8.3240  -26.3590 C   0  0  0  0  0  3  0  0  0  0  0  0
    1.6630   -7.8150  -26.9640 C   0  0  0  0  0  0  0  0  0  0  0  0
    0.5570   -4.3940  -27.6830 C   0  0  0  0  0  0  0  0  0  0  0  0
   -0.2450   -3.7060  -26.8090 N   0  0  0  0  0  0  0  0  0  0  0  0
    1.1960   -3.8560  -28.5730 O   0  0  0  0  0  0  0  0  0  0  0  0
   -0.2690   -2.6970  -26.8560 H   0  0  0  0  0  0  0  0  0  0  0  0
   -0.8100   -4.1720  -26.1100 H   0  0  0  0  0  0  0  0  0  0  0  0
  1 11  1  0  0  0  0
  2  1  2  0  0  0  0
  3  2  1  0  0  0  0
  4  3  2  0  0  0  0
  4  5  1  0  0  0  0
  5  6  2  0  0  0  0
  6  1  1  0  0  0  0
  7  8  2  0  0  0  0
  9  8  1  0  0  0  0
 10  9  2  0  0  0  0
 11 10  1  0  0  0  0
 11 13  1  0  0  0  0
 12 10  1  0  0  0  0
 12  7  1  0  0  0  0
 14 15  2  0  0  0  0
 14  7  1  0  0  0  0
 16 14  1  0  0  0  0
 16 18  1  0  0  0  0
 17 18  1  0  0  0  0
 19 20  1  0  0  0  0
 19  5  1  0  0  0  0
 20 21  1  0  0  0  0
 22 20  1  0  0  0  0
 23 22  2  0  0  0  0
 24 23  1  0  0  0  0
 25 24  2  0  0  0  0
 25 26  1  0  0  0  0
 26 27  2  0  0  0  0
 26 31  1  0  0  0  0
 27 28  1  0  0  0  0
 28 29  2  0  0  0  0
 29 30  1  0  0  0  0
 31 22  1  0  0  0  0
 31 30  2  0  0  0  0
 32 27  1  0  0  0  0
 32 33  1  0  0  0  0
 33 36  1  0  0  0  0
 34 32  2  0  0  0  0
 35 33  1  0  0  0  0
M  END
>  <minimizedAffinity>
-8.51070595

$$$$

 OpenBabel10152420003D

 36 39  0  0  0  0  0  0  0  0999 V2000
    1.7180   -6.2580  -27.1650 C   0  0  0  0  0  0  0  0  0  0  0  0
    0.9430   -5.5860  -28.1110 C   0  0  0  0  0  3  0  0  0  0  0  0
   -0.3530   -5.1810  -27.7930 C   0  0  0  0  0  3  0  0  0  0  0  0
   -0.8710   -5.4240  -26.5170 C   0  0  0  0  0  3  0  0  0  0  0  0
   -0.0940   -6.0400  -25.5250 C   0  0  0  0  0  0  0  0  0  0  0  0
    1.2030   -6.4470  -25.8690 C   0  0  0  0  0  3  0  0  0  0  0  0
    3.5310  -10.4750  -26.8900 C   0  0  0  0  0  0  0  0  0  0  0  0
    4.7220   -9.8050  -27.0580 C   0  0  0  0  0  3  0  0  0  0  0  0
    4.6140   -8.4540  -27.3460 N   0  0  0  0  0  0  0  0  0  0  0  0
    3.3510   -8.0810  -27.3250 C   0  0  0  0  0  0  0  0  0  0  0  0
    2.9570   -6.8030  -27.5380 N   0  0  0  0  0  0  0  0  0  0  0  0
    2.2350   -9.3870  -27.0910 S   0  0  0  0  0  0  0  0  0  0  0  0
    3.6120   -6.1700  -27.9780 H   0  0  0  0  0  0  0  0  0  0  0  0
    3.2590  -11.8510  -26.5740 C   0  0  0  0  0  0  0  0  0  0  0  0
    2.4920  -12.5910  -27.1770 O   0  0  0  0  0  0  0  0  0  0  0  0
    3.9420  -12.2020  -25.4460 O   0  0  0  0  0  0  0  0  0  0  0  0
    3.8270  -12.8810  -23.1020 C   0  0  0  0  0  1  0  0  0  0  0  0
    3.1930  -12.9590  -24.4840 C   0  0  0  0  0  2  0  0  0  0  0  0
   -0.6460   -6.3510  -24.1420 C   0  0  0  0  0  2  0  0  0  0  0  0
   -0.2940   -7.6940  -23.7020 N   0  0  0  0  0  0  0  0  0  0  0  0
    0.6680   -7.8600  -23.4530 H   0  0  0  0  0  0  0  0  0  0  0  0
   -1.2960   -8.4660  -23.1240 C   0  0  0  0  0  0  0  0  0  0  0  0
   -2.2330   -7.8090  -22.4170 N   0  0  0  0  0  0  0  0  0  0  0  0
   -2.9160   -8.5140  -21.5220 C   0  0  0  0  0  3  0  0  0  0  0  0
   -2.6590   -9.7770  -21.1880 N   0  0  0  0  0  0  0  0  0  0  0  0
   -1.7700  -10.4470  -21.9470 C   0  0  0  0  0  0  0  0  0  0  0  0
   -1.3590  -11.7400  -21.6220 C   0  0  0  0  0  0  0  0  0  0  0  0
   -0.5830  -12.5420  -22.4710 C   0  0  0  0  0  3  0  0  0  0  0  0
   -0.1130  -12.0040  -23.6560 C   0  0  0  0  0  3  0  0  0  0  0  0
   -0.3380  -10.6540  -23.9150 C   0  0  0  0  0  3  0  0  0  0  0  0
   -1.1430   -9.8620  -23.0480 C   0  0  0  0  0  0  0  0  0  0  0  0
   -1.4410  -12.1680  -20.2140 C   0  0  0  0  0  0  0  0  0  0  0  0
   -2.7290  -12.3160  -19.7630 N   0  0  0  0  0  0  0  0  0  0  0  0
   -0.4630  -12.2620  -19.4910 O   0  0  0  0  0  0  0  0  0  0  0  0
   -2.8830  -12.5740  -18.7990 H   0  0  0  0  0  0  0  0  0  0  0  0
   -3.5320  -12.1830  -20.3640 H   0  0  0  0  0  0  0  0  0  0  0  0
  1  6  1  0  0  0  0
  2  3  1  0  0  0  0
  2  1  2  0  0  0  0
  3  4  2  0  0  0  0
  4  5  1  0  0  0  0
  5 19  1  0  0  0  0
  6  5  2  0  0  0  0
  7 14  1  0  0  0  0
  8  7  2  0  0  0  0
  9 10  2  0  0  0  0
  9  8  1  0  0  0  0
 10 12  1  0  0  0  0
 11 10  1  0  0  0  0
 11  1  1  0  0  0  0
 12  7  1  0  0  0  0
 13 11  1  0  0  0  0
 14 16  1  0  0  0  0
 15 14  2  0  0  0  0
 16 18  1  0  0  0  0
 18 17  1  0  0  0  0
 19 20  1  0  0  0  0
 20 21  1  0  0  0  0
 20 22  1  0  0  0  0
 22 31  2  0  0  0  0
 22 23  1  0  0  0  0
 23 24  2  0  0  0  0
 24 25  1  0  0  0  0
 26 27  1  0  0  0  0
 26 25  2  0  0  0  0
 27 32  1  0  0  0  0
 28 27  2  0  0  0  0
 29 28  1  0  0  0  0
 30 29  2  0  0  0  0
 30 31  1  0  0  0  0
 31 26  1  0  0  0  0
 32 33  1  0  0  0  0
 32 34  2  0  0  0  0
 33 35  1  0  0  0  0
 36 33  1  0  0  0  0
M  END
>  <minimizedAffinity>
-8.34443474

$$$$

 OpenBabel10152420003D

 36 39  0  0  0  0  0  0  0  0999 V2000
   -0.8700   -7.9650  -26.4310 C   0  0  0  0  0  0  0  0  0  0  0  0
   -1.3760   -6.9570  -25.6090 C   0  0  0  0  0  3  0  0  0  0  0  0
   -0.8570   -5.6650  -25.6880 C   0  0  0  0  0  3  0  0  0  0  0  0
    0.1520   -5.3690  -26.6090 C   0  0  0  0  0  3  0  0  0  0  0  0
    0.6370   -6.3450  -27.4910 C   0  0  0  0  0  0  0  0  0  0  0  0
    0.1090   -7.6400  -27.3880 C   0  0  0  0  0  3  0  0  0  0  0  0
   -1.2920  -10.6380  -22.7130 C   0  0  0  0  0  0  0  0  0  0  0  0
   -1.2800  -11.6590  -23.6370 C   0  0  0  0  0  3  0  0  0  0  0  0
   -1.3200  -11.2650  -24.9650 N   0  0  0  0  0  0  0  0  0  0  0  0
   -1.2880   -9.9510  -25.0530 C   0  0  0  0  0  0  0  0  0  0  0  0
   -1.2800   -9.2940  -26.2380 N   0  0  0  0  0  0  0  0  0  0  0  0
   -1.3490   -9.1400  -23.5230 S   0  0  0  0  0  0  0  0  0  0  0  0
   -1.5660   -9.8010  -27.0650 H   0  0  0  0  0  0  0  0  0  0  0  0
   -1.2470  -10.6660  -21.2760 C   0  0  0  0  0  0  0  0  0  0  0  0
   -1.6650   -9.7940  -20.5250 O   0  0  0  0  0  0  0  0  0  0  0  0
   -0.6020  -11.7950  -20.8640 O   0  0  0  0  0  0  0  0  0  0  0  0
   -0.5840  -12.9570  -18.7140 C   0  0  0  0  0  1  0  0  0  0  0  0
   -1.3550  -12.6510  -19.9900 C   0  0  0  0  0  2  0  0  0  0  0  0
    1.7620   -6.0600  -28.4750 C   0  0  0  0  0  2  0  0  0  0  0  0
    3.0720   -6.1250  -27.8410 N   0  0  0  0  0  0  0  0  0  0  0  0
    3.2710   -5.4480  -27.1230 H   0  0  0  0  0  0  0  0  0  0  0  0
    3.7170   -7.3580  -27.8210 C   0  0  0  0  0  0  0  0  0  0  0  0
    4.4480   -7.6740  -28.9050 N   0  0  0  0  0  0  0  0  0  0  0  0
    4.6990   -8.9640  -29.1050 C   0  0  0  0  0  3  0  0  0  0  0  0
    4.1830   -9.9620  -28.3900 N   0  0  0  0  0  0  0  0  0  0  0  0
    3.5130   -9.6350  -27.2680 C   0  0  0  0  0  0  0  0  0  0  0  0
    2.8510  -10.5970  -26.5040 C   0  0  0  0  0  0  0  0  0  0  0  0
    2.2990  -10.3390  -25.2420 C   0  0  0  0  0  3  0  0  0  0  0  0
    2.3200   -9.0430  -24.7540 C   0  0  0  0  0  3  0  0  0  0  0  0
    2.7940   -8.0250  -25.5780 C   0  0  0  0  0  3  0  0  0  0  0  0
    3.3660   -8.3120  -26.8500 C   0  0  0  0  0  0  0  0  0  0  0  0
    2.4090  -11.8360  -27.1700 C   0  0  0  0  0  0  0  0  0  0  0  0
    1.0720  -12.0960  -27.0060 N   0  0  0  0  0  0  0  0  0  0  0  0
    3.1820  -12.6120  -27.7080 O   0  0  0  0  0  0  0  0  0  0  0  0
    0.6850  -12.9420  -27.4000 H   0  0  0  0  0  0  0  0  0  0  0  0
    0.4540  -11.4660  -26.5100 H   0  0  0  0  0  0  0  0  0  0  0  0
  1 11  1  0  0  0  0
  1  2  1  0  0  0  0
  3  2  2  0  0  0  0
  4  3  1  0  0  0  0
  5  6  1  0  0  0  0
  5  4  2  0  0  0  0
  6  1  2  0  0  0  0
  7 14  1  0  0  0  0
  8  7  2  0  0  0  0
  9  8  1  0  0  0  0
 10  9  2  0  0  0  0
 10 12  1  0  0  0  0
 11 10  1  0  0  0  0
 12  7  1  0  0  0  0
 13 11  1  0  0  0  0
 14 16  1  0  0  0  0
 14 15  2  0  0  0  0
 16 18  1  0  0  0  0
 18 17  1  0  0  0  0
 19 20  1  0  0  0  0
 19  5  1  0  0  0  0
 20 22  1  0  0  0  0
 20 21  1  0  0  0  0
 22 31  1  0  0  0  0
 23 22  2  0  0  0  0
 24 23  1  0  0  0  0
 24 25  2  0  0  0  0
 25 26  1  0  0  0  0
 26 31  2  0  0  0  0
 26 27  1  0  0  0  0
 27 28  2  0  0  0  0
 28 29  1  0  0  0  0
 30 29  2  0  0  0  0
 31 30  1  0  0  0  0
 32 33  1  0  0  0  0
 32 27  1  0  0  0  0
 33 36  1  0  0  0  0
 34 32  2  0  0  0  0
 35 33  1  0  0  0  0
M  END
>  <minimizedAffinity>
-8.24243641

$$$$

 OpenBabel10152420003D

 36 39  0  0  0  0  0  0  0  0999 V2000
   -0.2110   -4.9800  -26.0610 C   0  0  0  0  0  0  0  0  0  0  0  0
   -0.3980   -3.6470  -26.4290 C   0  0  0  0  0  3  0  0  0  0  0  0
    0.2140   -3.1470  -27.5780 C   0  0  0  0  0  3  0  0  0  0  0  0
    0.9950   -3.9840  -28.3790 C   0  0  0  0  0  3  0  0  0  0  0  0
    1.1490   -5.3440  -28.0700 C   0  0  0  0  0  0  0  0  0  0  0  0
    0.5340   -5.8240  -26.9060 C   0  0  0  0  0  3  0  0  0  0  0  0
   -1.5170   -9.1050  -24.5040 C   0  0  0  0  0  0  0  0  0  0  0  0
   -2.1430   -8.3640  -23.5260 C   0  0  0  0  0  3  0  0  0  0  0  0
   -1.8660   -7.0070  -23.5330 N   0  0  0  0  0  0  0  0  0  0  0  0
   -1.0930   -6.7030  -24.5550 C   0  0  0  0  0  0  0  0  0  0  0  0
   -0.6940   -5.4370  -24.8250 N   0  0  0  0  0  0  0  0  0  0  0  0
   -0.5580   -8.0770  -25.4660 S   0  0  0  0  0  0  0  0  0  0  0  0
   -0.7710   -4.7470  -24.0890 H   0  0  0  0  0  0  0  0  0  0  0  0
   -1.5760  -10.5090  -24.8060 C   0  0  0  0  0  0  0  0  0  0  0  0
   -1.8810  -11.0020  -25.8850 O   0  0  0  0  0  0  0  0  0  0  0  0
   -1.3030  -11.2280  -23.6800 O   0  0  0  0  0  0  0  0  0  0  0  0
    0.8300  -12.2760  -23.1090 C   0  0  0  0  0  1  0  0  0  0  0  0
   -0.4810  -12.3890  -23.8740 C   0  0  0  0  0  2  0  0  0  0  0  0
    2.0260   -6.2680  -28.9020 C   0  0  0  0  0  2  0  0  0  0  0  0
    3.3740   -6.3770  -28.3620 N   0  0  0  0  0  0  0  0  0  0  0  0
    3.6770   -5.6550  -27.7280 H   0  0  0  0  0  0  0  0  0  0  0  0
    3.9300   -7.6490  -28.2710 C   0  0  0  0  0  0  0  0  0  0  0  0
    4.5740   -8.1060  -29.3600 N   0  0  0  0  0  0  0  0  0  0  0  0
    4.7210   -9.4230  -29.4630 C   0  0  0  0  0  3  0  0  0  0  0  0
    4.1770  -10.3180  -28.6410 N   0  0  0  0  0  0  0  0  0  0  0  0
    3.5980   -9.8530  -27.5180 C   0  0  0  0  0  0  0  0  0  0  0  0
    2.9140  -10.6970  -26.6430 C   0  0  0  0  0  0  0  0  0  0  0  0
    2.4540  -10.2970  -25.3800 C   0  0  0  0  0  3  0  0  0  0  0  0
    2.5950   -8.9720  -25.0050 C   0  0  0  0  0  3  0  0  0  0  0  0
    3.0920   -8.0620  -25.9360 C   0  0  0  0  0  3  0  0  0  0  0  0
    3.5680   -8.4920  -27.2060 C   0  0  0  0  0  0  0  0  0  0  0  0
    2.3470  -11.9490  -27.1780 C   0  0  0  0  0  0  0  0  0  0  0  0
    0.9910  -12.0550  -26.9970 N   0  0  0  0  0  0  0  0  0  0  0  0
    3.0360  -12.8500  -27.6260 O   0  0  0  0  0  0  0  0  0  0  0  0
    0.5210  -12.8950  -27.3020 H   0  0  0  0  0  0  0  0  0  0  0  0
    0.4410  -11.3180  -26.5750 H   0  0  0  0  0  0  0  0  0  0  0  0
  1 11  1  0  0  0  0
  2  1  1  0  0  0  0
  3  2  2  0  0  0  0
  4  5  2  0  0  0  0
  4  3  1  0  0  0  0
  5  6  1  0  0  0  0
  6  1  2  0  0  0  0
  7  8  2  0  0  0  0
  9  8  1  0  0  0  0
 10  9  2  0  0  0  0
 11 10  1  0  0  0  0
 11 13  1  0  0  0  0
 12 10  1  0  0  0  0
 12  7  1  0  0  0  0
 14  7  1  0  0  0  0
 14 16  1  0  0  0  0
 15 14  2  0  0  0  0
 18 16  1  0  0  0  0
 18 17  1  0  0  0  0
 19 20  1  0  0  0  0
 19  5  1  0  0  0  0
 20 22  1  0  0  0  0
 20 21  1  0  0  0  0
 22 31  1  0  0  0  0
 23 22  2  0  0  0  0
 24 23  1  0  0  0  0
 24 25  2  0  0  0  0
 25 26  1  0  0  0  0
 26 31  2  0  0  0  0
 26 27  1  0  0  0  0
 27 28  2  0  0  0  0
 28 29  1  0  0  0  0
 30 29  2  0  0  0  0
 31 30  1  0  0  0  0
 32 33  1  0  0  0  0
 32 27  1  0  0  0  0
 33 36  1  0  0  0  0
 34 32  2  0  0  0  0
 35 33  1  0  0  0  0
M  END
>  <minimizedAffinity>
-8.19468307

$$$$

 OpenBabel10152420003D

 36 39  0  0  0  0  0  0  0  0999 V2000
    1.4230  -12.1030  -24.1410 C   0  0  0  0  0  0  0  0  0  0  0  0
    2.5670  -12.8670  -24.3720 C   0  0  0  0  0  3  0  0  0  0  0  0
    3.5260  -12.4300  -25.2850 C   0  0  0  0  0  3  0  0  0  0  0  0
    3.3590  -11.2130  -25.9510 C   0  0  0  0  0  3  0  0  0  0  0  0
    2.2510  -10.3920  -25.6920 C   0  0  0  0  0  0  0  0  0  0  0  0
    1.2930  -10.8550  -24.7790 C   0  0  0  0  0  3  0  0  0  0  0  0
   -1.6850  -10.1800  -21.3490 C   0  0  0  0  0  0  0  0  0  0  0  0
   -1.7940  -11.4580  -20.8470 C   0  0  0  0  0  3  0  0  0  0  0  0
   -1.1020  -12.4360  -21.5420 N   0  0  0  0  0  0  0  0  0  0  0  0
   -0.4110  -11.8960  -22.5240 C   0  0  0  0  0  0  0  0  0  0  0  0
    0.3870  -12.6190  -23.3460 N   0  0  0  0  0  0  0  0  0  0  0  0
   -0.6840  -10.1980  -22.7280 S   0  0  0  0  0  0  0  0  0  0  0  0
    0.2530  -13.6220  -23.3780 H   0  0  0  0  0  0  0  0  0  0  0  0
   -2.2420   -8.9360  -20.8920 C   0  0  0  0  0  0  0  0  0  0  0  0
   -1.7670   -8.2090  -20.0290 O   0  0  0  0  0  0  0  0  0  0  0  0
   -3.4300   -8.7110  -21.5220 O   0  0  0  0  0  0  0  0  0  0  0  0
   -4.7260   -7.5710  -23.2520 C   0  0  0  0  0  1  0  0  0  0  0  0
   -3.3460   -7.9690  -22.7490 C   0  0  0  0  0  2  0  0  0  0  0  0
    2.0230   -9.0830  -26.4320 C   0  0  0  0  0  2  0  0  0  0  0  0
    0.7000   -8.5320  -26.1770 N   0  0  0  0  0  0  0  0  0  0  0  0
   -0.0600   -9.1850  -26.0760 H   0  0  0  0  0  0  0  0  0  0  0  0
    0.6280   -7.2930  -25.5470 C   0  0  0  0  0  0  0  0  0  0  0  0
    0.1560   -7.2820  -24.2880 N   0  0  0  0  0  0  0  0  0  0  0  0
   -0.3260   -6.1290  -23.8360 C   0  0  0  0  0  3  0  0  0  0  0  0
   -0.4890   -5.0300  -24.5700 N   0  0  0  0  0  0  0  0  0  0  0  0
    0.0510   -5.0270  -25.8050 C   0  0  0  0  0  0  0  0  0  0  0  0
   -0.1490   -3.9660  -26.6880 C   0  0  0  0  0  0  0  0  0  0  0  0
    0.5340   -3.8320  -27.9050 C   0  0  0  0  0  3  0  0  0  0  0  0
    1.3840   -4.8460  -28.3110 C   0  0  0  0  0  3  0  0  0  0  0  0
    1.4510   -6.0090  -27.5480 C   0  0  0  0  0  3  0  0  0  0  0  0
    0.7630   -6.1180  -26.3070 C   0  0  0  0  0  0  0  0  0  0  0  0
   -1.3520   -3.1310  -26.5190 C   0  0  0  0  0  0  0  0  0  0  0  0
   -1.1750   -2.0920  -25.6400 N   0  0  0  0  0  0  0  0  0  0  0  0
   -2.4290   -3.4110  -27.0180 O   0  0  0  0  0  0  0  0  0  0  0  0
   -1.9570   -1.4850  -25.4350 H   0  0  0  0  0  0  0  0  0  0  0  0
   -0.2870   -1.9040  -25.1930 H   0  0  0  0  0  0  0  0  0  0  0  0
  1 11  1  0  0  0  0
  2  1  1  0  0  0  0
  3  2  2  0  0  0  0
  4  5  2  0  0  0  0
  4  3  1  0  0  0  0
  5  6  1  0  0  0  0
  6  1  2  0  0  0  0
  7 14  1  0  0  0  0
  7  8  2  0  0  0  0
  9  8  1  0  0  0  0
 10  9  2  0  0  0  0
 11 10  1  0  0  0  0
 12 10  1  0  0  0  0
 12  7  1  0  0  0  0
 13 11  1  0  0  0  0
 14 15  2  0  0  0  0
 16 14  1  0  0  0  0
 17 18  1  0  0  0  0
 18 16  1  0  0  0  0
 19 20  1  0  0  0  0
 19  5  1  0  0  0  0
 20 21  1  0  0  0  0
 20 22  1  0  0  0  0
 22 23  1  0  0  0  0
 23 24  2  0  0  0  0
 25 24  1  0  0  0  0
 26 25  2  0  0  0  0
 27 32  1  0  0  0  0
 27 26  1  0  0  0  0
 28 27  2  0  0  0  0
 29 28  1  0  0  0  0
 29 30  2  0  0  0  0
 30 31  1  0  0  0  0
 31 26  1  0  0  0  0
 31 22  2  0  0  0  0
 32 33  1  0  0  0  0
 33 35  1  0  0  0  0
 33 36  1  0  0  0  0
 34 32  2  0  0  0  0
M  END
>  <minimizedAffinity>
-7.78772354

$$$$

 OpenBabel10152420003D

 36 39  0  0  0  0  0  0  0  0999 V2000
    3.4480  -11.0850  -26.3950 C   0  0  0  0  0  0  0  0  0  0  0  0
    4.1190  -11.9560  -25.5360 C   0  0  0  0  0  3  0  0  0  0  0  0
    3.3980  -12.8230  -24.7160 C   0  0  0  0  0  3  0  0  0  0  0  0
    2.0010  -12.8410  -24.7700 C   0  0  0  0  0  3  0  0  0  0  0  0
    1.3000  -12.0220  -25.6680 C   0  0  0  0  0  0  0  0  0  0  0  0
    2.0450  -11.1510  -26.4760 C   0  0  0  0  0  3  0  0  0  0  0  0
    2.4050   -6.8730  -27.9180 C   0  0  0  0  0  0  0  0  0  0  0  0
    3.5020   -7.0640  -28.7290 C   0  0  0  0  0  3  0  0  0  0  0  0
    4.2440   -8.2060  -28.4740 N   0  0  0  0  0  0  0  0  0  0  0  0
    3.6740   -8.9190  -27.5240 C   0  0  0  0  0  0  0  0  0  0  0  0
    4.1680  -10.1060  -27.0980 N   0  0  0  0  0  0  0  0  0  0  0  0
    2.2910   -8.1600  -26.8070 S   0  0  0  0  0  0  0  0  0  0  0  0
    5.1280  -10.3300  -27.3230 H   0  0  0  0  0  0  0  0  0  0  0  0
    1.4170   -5.8290  -27.8990 C   0  0  0  0  0  0  0  0  0  0  0  0
    1.4180   -4.8230  -28.5970 O   0  0  0  0  0  0  0  0  0  0  0  0
    0.4950   -6.0930  -26.9290 O   0  0  0  0  0  0  0  0  0  0  0  0
   -0.5020   -4.6290  -25.2470 C   0  0  0  0  0  1  0  0  0  0  0  0
   -0.4770   -5.0610  -26.7050 C   0  0  0  0  0  2  0  0  0  0  0  0
   -0.2200  -11.9930  -25.7190 C   0  0  0  0  0  2  0  0  0  0  0  0
   -0.8180  -12.4320  -24.4670 N   0  0  0  0  0  0  0  0  0  0  0  0
   -0.8620  -13.4240  -24.2990 H   0  0  0  0  0  0  0  0  0  0  0  0
   -0.7710  -11.5540  -23.3880 C   0  0  0  0  0  0  0  0  0  0  0  0
   -0.6920  -12.1060  -22.1640 N   0  0  0  0  0  0  0  0  0  0  0  0
   -1.0790  -11.3540  -21.1390 C   0  0  0  0  0  3  0  0  0  0  0  0
   -1.6490  -10.1560  -21.2440 N   0  0  0  0  0  0  0  0  0  0  0  0
   -1.6590   -9.5820  -22.4630 C   0  0  0  0  0  0  0  0  0  0  0  0
   -2.3190   -8.3750  -22.6980 C   0  0  0  0  0  0  0  0  0  0  0  0
   -2.2070   -7.6520  -23.8940 C   0  0  0  0  0  3  0  0  0  0  0  0
   -1.4830   -8.1960  -24.9410 C   0  0  0  0  0  3  0  0  0  0  0  0
   -0.9810   -9.4880  -24.8070 C   0  0  0  0  0  3  0  0  0  0  0  0
   -1.0910  -10.1990  -23.5790 C   0  0  0  0  0  0  0  0  0  0  0  0
   -3.4380   -8.0050  -21.8130 C   0  0  0  0  0  0  0  0  0  0  0  0
   -3.0460   -7.7210  -20.5280 N   0  0  0  0  0  0  0  0  0  0  0  0
   -4.6060   -8.0650  -22.1600 O   0  0  0  0  0  0  0  0  0  0  0  0
   -3.7500   -7.4890  -19.8420 H   0  0  0  0  0  0  0  0  0  0  0  0
   -2.0750   -7.7270  -20.2440 H   0  0  0  0  0  0  0  0  0  0  0  0
  1  2  1  0  0  0  0
  2  3  2  0  0  0  0
  4  3  1  0  0  0  0
  5  4  2  0  0  0  0
  6  1  2  0  0  0  0
  6  5  1  0  0  0  0
  7 14  1  0  0  0  0
  7 12  1  0  0  0  0
  8  9  1  0  0  0  0
  8  7  2  0  0  0  0
  9 10  2  0  0  0  0
 10 11  1  0  0  0  0
 10 12  1  0  0  0  0
 11  1  1  0  0  0  0
 13 11  1  0  0  0  0
 14 16  1  0  0  0  0
 15 14  2  0  0  0  0
 16 18  1  0  0  0  0
 18 17  1  0  0  0  0
 19  5  1  0  0  0  0
 19 20  1  0  0  0  0
 20 21  1  0  0  0  0
 20 22  1  0  0  0  0
 22 23  1  0  0  0  0
 23 24  2  0  0  0  0
 25 24  1  0  0  0  0
 26 25  2  0  0  0  0
 27 26  1  0  0  0  0
 27 32  1  0  0  0  0
 28 27  2  0  0  0  0
 29 30  2  0  0  0  0
 29 28  1  0  0  0  0
 30 31  1  0  0  0  0
 31 22  2  0  0  0  0
 31 26  1  0  0  0  0
 32 33  1  0  0  0  0
 33 36  1  0  0  0  0
 33 35  1  0  0  0  0
 34 32  2  0  0  0  0
M  END
>  <minimizedAffinity>
-7.78302431

$$$$

 OpenBabel10152420003D

 36 39  0  0  0  0  0  0  0  0999 V2000
    1.8320  -12.0730  -24.6280 C   0  0  0  0  0  0  0  0  0  0  0  0
    2.8040  -12.8860  -25.2130 C   0  0  0  0  0  3  0  0  0  0  0  0
    3.7860  -12.3250  -26.0280 C   0  0  0  0  0  3  0  0  0  0  0  0
    3.8180  -10.9440  -26.2400 C   0  0  0  0  0  3  0  0  0  0  0  0
    2.8940  -10.0940  -25.6150 C   0  0  0  0  0  0  0  0  0  0  0  0
    1.9090  -10.6790  -24.8080 C   0  0  0  0  0  3  0  0  0  0  0  0
   -1.3490  -10.4230  -21.7460 C   0  0  0  0  0  0  0  0  0  0  0  0
   -1.5040  -11.7490  -21.4070 C   0  0  0  0  0  3  0  0  0  0  0  0
   -0.8040  -12.6530  -22.1890 N   0  0  0  0  0  0  0  0  0  0  0  0
   -0.0620  -12.0170  -23.0710 C   0  0  0  0  0  0  0  0  0  0  0  0
    0.7550  -12.6550  -23.9430 N   0  0  0  0  0  0  0  0  0  0  0  0
   -0.2930  -10.3000  -23.0770 S   0  0  0  0  0  0  0  0  0  0  0  0
    0.6020  -13.6430  -24.1010 H   0  0  0  0  0  0  0  0  0  0  0  0
   -1.8990   -9.2300  -21.1630 C   0  0  0  0  0  0  0  0  0  0  0  0
   -1.3830   -8.5540  -20.2820 O   0  0  0  0  0  0  0  0  0  0  0  0
   -3.1320   -8.9900  -21.6960 O   0  0  0  0  0  0  0  0  0  0  0  0
   -4.6240   -7.6520  -23.0940 C   0  0  0  0  0  1  0  0  0  0  0  0
   -3.1920   -7.9220  -22.6530 C   0  0  0  0  0  2  0  0  0  0  0  0
    2.8810   -8.5920  -25.8610 C   0  0  0  0  0  2  0  0  0  0  0  0
    2.8400   -8.2700  -27.2800 N   0  0  0  0  0  0  0  0  0  0  0  0
    3.0480   -9.0130  -27.9280 H   0  0  0  0  0  0  0  0  0  0  0  0
    2.0170   -7.2220  -27.6790 C   0  0  0  0  0  0  0  0  0  0  0  0
    2.6000   -6.2240  -28.3660 N   0  0  0  0  0  0  0  0  0  0  0  0
    1.9740   -5.0520  -28.3730 C   0  0  0  0  0  3  0  0  0  0  0  0
    0.8900   -4.7620  -27.6570 N   0  0  0  0  0  0  0  0  0  0  0  0
    0.2730   -5.7820  -27.0300 C   0  0  0  0  0  0  0  0  0  0  0  0
   -0.8100   -5.5690  -26.1760 C   0  0  0  0  0  0  0  0  0  0  0  0
   -1.5950   -6.6040  -25.6480 C   0  0  0  0  0  3  0  0  0  0  0  0
   -1.2330   -7.9160  -25.9000 C   0  0  0  0  0  3  0  0  0  0  0  0
   -0.0430   -8.1620  -26.5820 C   0  0  0  0  0  3  0  0  0  0  0  0
    0.7300   -7.0970  -27.1250 C   0  0  0  0  0  0  0  0  0  0  0  0
   -0.9400   -4.2530  -25.5250 C   0  0  0  0  0  0  0  0  0  0  0  0
   -1.1600   -3.2270  -26.4090 N   0  0  0  0  0  0  0  0  0  0  0  0
   -0.7480   -4.0810  -24.3330 O   0  0  0  0  0  0  0  0  0  0  0  0
   -1.2290   -2.2820  -26.0560 H   0  0  0  0  0  0  0  0  0  0  0  0
   -1.2650   -3.3810  -27.4040 H   0  0  0  0  0  0  0  0  0  0  0  0
  1 11  1  0  0  0  0
  2  1  2  0  0  0  0
  3  2  1  0  0  0  0
  4  3  2  0  0  0  0
  4  5  1  0  0  0  0
  5  6  2  0  0  0  0
  6  1  1  0  0  0  0
  7  8  2  0  0  0  0
  7 14  1  0  0  0  0
  9  8  1  0  0  0  0
 10  9  2  0  0  0  0
 11 10  1  0  0  0  0
 12 10  1  0  0  0  0
 12  7  1  0  0  0  0
 13 11  1  0  0  0  0
 14 15  2  0  0  0  0
 16 14  1  0  0  0  0
 17 18  1  0  0  0  0
 18 16  1  0  0  0  0
 19  5  1  0  0  0  0
 20 19  1  0  0  0  0
 21 20  1  0  0  0  0
 22 20  1  0  0  0  0
 22 31  1  0  0  0  0
 23 22  2  0  0  0  0
 24 23  1  0  0  0  0
 24 25  2  0  0  0  0
 25 26  1  0  0  0  0
 26 27  1  0  0  0  0
 27 28  2  0  0  0  0
 27 32  1  0  0  0  0
 29 28  1  0  0  0  0
 30 29  2  0  0  0  0
 31 26  2  0  0  0  0
 31 30  1  0  0  0  0
 32 34  2  0  0  0  0
 33 35  1  0  0  0  0
 33 32  1  0  0  0  0
 36 33  1  0  0  0  0
M  END
>  <minimizedAffinity>
-7.40184736

$$$$

 OpenBabel10152420003D

 36 39  0  0  0  0  0  0  0  0999 V2000
    1.2280   -5.0720  -27.9890 C   0  0  0  0  0  0  0  0  0  0  0  0
    1.0140   -3.6950  -28.0680 C   0  0  0  0  0  3  0  0  0  0  0  0
    0.0180   -3.0980  -27.2980 C   0  0  0  0  0  3  0  0  0  0  0  0
   -0.7530   -3.8700  -26.4240 C   0  0  0  0  0  3  0  0  0  0  0  0
   -0.5200   -5.2450  -26.2760 C   0  0  0  0  0  0  0  0  0  0  0  0
    0.4800   -5.8280  -27.0670 C   0  0  0  0  0  3  0  0  0  0  0  0
    3.7500   -8.9110  -27.7810 C   0  0  0  0  0  0  0  0  0  0  0  0
    4.4520   -8.3200  -28.8080 C   0  0  0  0  0  3  0  0  0  0  0  0
    3.9040   -7.1510  -29.3130 N   0  0  0  0  0  0  0  0  0  0  0  0
    2.8330   -6.8140  -28.6250 C   0  0  0  0  0  0  0  0  0  0  0  0
    2.1180   -5.6920  -28.8800 N   0  0  0  0  0  0  0  0  0  0  0  0
    2.3690   -7.9780  -27.4280 S   0  0  0  0  0  0  0  0  0  0  0  0
    2.2490   -5.2380  -29.7740 H   0  0  0  0  0  0  0  0  0  0  0  0
    4.0180  -10.1000  -27.0190 C   0  0  0  0  0  0  0  0  0  0  0  0
    4.7220  -11.0390  -27.3700 O   0  0  0  0  0  0  0  0  0  0  0  0
    3.3090  -10.0620  -25.8540 O   0  0  0  0  0  0  0  0  0  0  0  0
    2.2290  -12.0520  -26.7730 C   0  0  0  0  0  1  0  0  0  0  0  0
    2.6010  -11.2670  -25.5240 C   0  0  0  0  0  2  0  0  0  0  0  0
   -1.3700   -6.1160  -25.3630 C   0  0  0  0  0  2  0  0  0  0  0  0
   -0.5570   -6.9510  -24.4900 N   0  0  0  0  0  0  0  0  0  0  0  0
    0.3270   -6.5760  -24.1850 H   0  0  0  0  0  0  0  0  0  0  0  0
   -1.2140   -7.8890  -23.7000 C   0  0  0  0  0  0  0  0  0  0  0  0
   -1.5080   -7.5180  -22.4410 N   0  0  0  0  0  0  0  0  0  0  0  0
   -1.7200   -8.4910  -21.5610 C   0  0  0  0  0  3  0  0  0  0  0  0
   -1.5430   -9.7890  -21.8020 N   0  0  0  0  0  0  0  0  0  0  0  0
   -1.3200  -10.1550  -23.0790 C   0  0  0  0  0  0  0  0  0  0  0  0
   -1.0240  -11.4750  -23.4200 C   0  0  0  0  0  0  0  0  0  0  0  0
   -0.9640  -11.9380  -24.7420 C   0  0  0  0  0  3  0  0  0  0  0  0
   -1.1100  -11.0310  -25.7770 C   0  0  0  0  0  3  0  0  0  0  0  0
   -1.2060   -9.6760  -25.4710 C   0  0  0  0  0  3  0  0  0  0  0  0
   -1.2820   -9.2280  -24.1210 C   0  0  0  0  0  0  0  0  0  0  0  0
   -0.4180  -12.3450  -22.3950 C   0  0  0  0  0  0  0  0  0  0  0  0
    0.7570  -12.9280  -22.7990 N   0  0  0  0  0  0  0  0  0  0  0  0
   -0.9720  -12.6120  -21.3410 O   0  0  0  0  0  0  0  0  0  0  0  0
    1.2260  -13.5670  -22.1730 H   0  0  0  0  0  0  0  0  0  0  0  0
    1.1760  -12.7350  -23.6990 H   0  0  0  0  0  0  0  0  0  0  0  0
  1  6  1  0  0  0  0
  2  1  2  0  0  0  0
  2  3  1  0  0  0  0
  3  4  2  0  0  0  0
  4  5  1  0  0  0  0
  5 19  1  0  0  0  0
  6  5  2  0  0  0  0
  7 12  1  0  0  0  0
  7 14  1  0  0  0  0
  8  7  2  0  0  0  0
  9  8  1  0  0  0  0
  9 10  2  0  0  0  0
 10 12  1  0  0  0  0
 11 10  1  0  0  0  0
 11  1  1  0  0  0  0
 13 11  1  0  0  0  0
 14 16  1  0  0  0  0
 15 14  2  0  0  0  0
 16 18  1  0  0  0  0
 17 18  1  0  0  0  0
 19 20  1  0  0  0  0
 20 21  1  0  0  0  0
 20 22  1  0  0  0  0
 22 23  1  0  0  0  0
 23 24  2  0  0  0  0
 25 24  1  0  0  0  0
 26 25  2  0  0  0  0
 27 26  1  0  0  0  0
 27 32  1  0  0  0  0
 28 27  2  0  0  0  0
 29 30  2  0  0  0  0
 29 28  1  0  0  0  0
 30 31  1  0  0  0  0
 31 22  2  0  0  0  0
 31 26  1  0  0  0  0
 32 34  2  0  0  0  0
 33 32  1  0  0  0  0
 33 35  1  0  0  0  0
 36 33  1  0  0  0  0
M  END
>  <minimizedAffinity>
-7.37148142

$$$$
