
 OpenBabel10152420003D

 36 39  0  0  0  0  0  0  0  0999 V2000
    1.8320  -12.0730  -24.6280 C   0  0  0  0  0  0  0  0  0  0  0  0
    2.8040  -12.8860  -25.2130 C   0  0  0  0  0  3  0  0  0  0  0  0
    3.7860  -12.3250  -26.0280 C   0  0  0  0  0  3  0  0  0  0  0  0
    3.8180  -10.9440  -26.2400 C   0  0  0  0  0  3  0  0  0  0  0  0
    2.8940  -10.0940  -25.6150 C   0  0  0  0  0  0  0  0  0  0  0  0
    1.9090  -10.6790  -24.8080 C   0  0  0  0  0  3  0  0  0  0  0  0
   -1.3490  -10.4230  -21.7460 C   0  0  0  0  0  0  0  0  0  0  0  0
   -1.5040  -11.7490  -21.4070 C   0  0  0  0  0  3  0  0  0  0  0  0
   -0.8040  -12.6530  -22.1890 N   0  0  0  0  0  0  0  0  0  0  0  0
   -0.0620  -12.0170  -23.0710 C   0  0  0  0  0  0  0  0  0  0  0  0
    0.7550  -12.6550  -23.9430 N   0  0  0  0  0  0  0  0  0  0  0  0
   -0.2930  -10.3000  -23.0770 S   0  0  0  0  0  0  0  0  0  0  0  0
    0.6020  -13.6430  -24.1010 H   0  0  0  0  0  0  0  0  0  0  0  0
   -1.8990   -9.2300  -21.1630 C   0  0  0  0  0  0  0  0  0  0  0  0
   -1.3830   -8.5540  -20.2820 O   0  0  0  0  0  0  0  0  0  0  0  0
   -3.1320   -8.9900  -21.6960 O   0  0  0  0  0  0  0  0  0  0  0  0
   -4.6240   -7.6520  -23.0940 C   0  0  0  0  0  1  0  0  0  0  0  0
   -3.1920   -7.9220  -22.6530 C   0  0  0  0  0  2  0  0  0  0  0  0
    2.8810   -8.5920  -25.8610 C   0  0  0  0  0  2  0  0  0  0  0  0
    2.8400   -8.2700  -27.2800 N   0  0  0  0  0  0  0  0  0  0  0  0
    3.0480   -9.0130  -27.9280 H   0  0  0  0  0  0  0  0  0  0  0  0
    2.0170   -7.2220  -27.6790 C   0  0  0  0  0  0  0  0  0  0  0  0
    2.6000   -6.2240  -28.3660 N   0  0  0  0  0  0  0  0  0  0  0  0
    1.9740   -5.0520  -28.3730 C   0  0  0  0  0  3  0  0  0  0  0  0
    0.8900   -4.7620  -27.6570 N   0  0  0  0  0  0  0  0  0  0  0  0
    0.2730   -5.7820  -27.0300 C   0  0  0  0  0  0  0  0  0  0  0  0
   -0.8100   -5.5690  -26.1760 C   0  0  0  0  0  0  0  0  0  0  0  0
   -1.5950   -6.6040  -25.6480 C   0  0  0  0  0  3  0  0  0  0  0  0
   -1.2330   -7.9160  -25.9000 C   0  0  0  0  0  3  0  0  0  0  0  0
   -0.0430   -8.1620  -26.5820 C   0  0  0  0  0  3  0  0  0  0  0  0
    0.7300   -7.0970  -27.1250 C   0  0  0  0  0  0  0  0  0  0  0  0
   -0.9400   -4.2530  -25.5250 C   0  0  0  0  0  0  0  0  0  0  0  0
   -1.1600   -3.2270  -26.4090 N   0  0  0  0  0  0  0  0  0  0  0  0
   -0.7480   -4.0810  -24.3330 O   0  0  0  0  0  0  0  0  0  0  0  0
   -1.2290   -2.2820  -26.0560 H   0  0  0  0  0  0  0  0  0  0  0  0
   -1.2650   -3.3810  -27.4040 H   0  0  0  0  0  0  0  0  0  0  0  0
  1 11  1  0  0  0  0
  2  1  2  0  0  0  0
  3  2  1  0  0  0  0
  4  3  2  0  0  0  0
  4  5  1  0  0  0  0
  5  6  2  0  0  0  0
  6  1  1  0  0  0  0
  7  8  2  0  0  0  0
  7 14  1  0  0  0  0
  9  8  1  0  0  0  0
 10  9  2  0  0  0  0
 11 10  1  0  0  0  0
 12 10  1  0  0  0  0
 12  7  1  0  0  0  0
 13 11  1  0  0  0  0
 14 15  2  0  0  0  0
 16 14  1  0  0  0  0
 17 18  1  0  0  0  0
 18 16  1  0  0  0  0
 19  5  1  0  0  0  0
 20 19  1  0  0  0  0
 21 20  1  0  0  0  0
 22 20  1  0  0  0  0
 22 31  1  0  0  0  0
 23 22  2  0  0  0  0
 24 23  1  0  0  0  0
 24 25  2  0  0  0  0
 25 26  1  0  0  0  0
 26 27  1  0  0  0  0
 27 28  2  0  0  0  0
 27 32  1  0  0  0  0
 29 28  1  0  0  0  0
 30 29  2  0  0  0  0
 31 26  2  0  0  0  0
 31 30  1  0  0  0  0
 32 34  2  0  0  0  0
 33 35  1  0  0  0  0
 33 32  1  0  0  0  0
 36 33  1  0  0  0  0
M  END
>  <minimizedAffinity>
-7.40184736

$$$$
