REMARK  Name = 
REMARK  9 active torsions:
REMARK  status: ('A' for Active; 'I' for Inactive)
REMARK    1  A    between atoms: C_1  and  C_2
REMARK    2  A    between atoms: C_2  and  O_3
REMARK    3  A    between atoms: O_3  and  C_4
REMARK    4  A    between atoms: C_4  and  C_6
REMARK    5  A    between atoms: N_10  and  C_11
REMARK    6  A    between atoms: C_15  and  C_16
REMARK    7  A    between atoms: C_16  and  N_17
REMARK    8  A    between atoms: N_17  and  C_18
REMARK    9  A    between atoms: C_23  and  C_24
REMARK                            x       y       z     vdW  Elec       q    Type
REMARK                         _______ _______ _______ _____ _____    ______ ____
ROOT
ATOM      1  C   UNL     1       4.772   5.081  -5.114  0.00  0.00    +0.033 A 
ATOM      2  C   UNL     1       6.092   5.461  -5.361  0.00  0.00    +0.023 A 
ATOM      3  C   UNL     1       6.891   4.699  -6.212  0.00  0.00    +0.002 A 
ATOM      4  C   UNL     1       6.366   3.567  -6.842  0.00  0.00    +0.005 A 
ATOM      5  C   UNL     1       5.025   3.196  -6.664  0.00  0.00    -0.029 A 
ATOM      6  C   UNL     1       4.242   3.970  -5.796  0.00  0.00    +0.028 A 
ENDROOT
BRANCH   1  11
ATOM      7  C   UNL     1       2.639   3.729  -1.271  0.00  0.00    +0.117 A 
ATOM      8  C   UNL     1       1.967   4.923  -1.410  0.00  0.00    +0.135 A 
ATOM      9  N   UNL     1       2.433   5.760  -2.411  0.00  0.00    -0.232 NA
ATOM     10  C   UNL     1       3.406   5.176  -3.079  0.00  0.00    +0.163 A 
ATOM     11  N   UNL     1       4.023   5.755  -4.137  0.00  0.00    -0.294 N 
ATOM     12  S   UNL     1       3.887   3.644  -2.428  0.00  0.00    -0.046 S 
ATOM     13  H   UNL     1       3.920   6.754  -4.259  0.00  0.00    +0.154 HD
BRANCH   7  14
ATOM     14  C   UNL     1       2.432   2.630  -0.368  0.00  0.00    +0.347 C 
ATOM     15  O   UNL     1       3.292   1.858   0.037  0.00  0.00    -0.244 OA
BRANCH  14  16
ATOM     16  O   UNL     1       1.104   2.528  -0.073  0.00  0.00    -0.461 OA
BRANCH  16  18
ATOM     17  C   UNL     1       0.756   0.110  -0.121  0.00  0.00    +0.048 C 
ATOM     18  C   UNL     1       0.733   1.384   0.711  0.00  0.00    +0.229 C 
ENDBRANCH  16  18
ENDBRANCH  14  16
ENDBRANCH   7  14
ENDBRANCH   1  11
BRANCH   5  19
ATOM     19  C   UNL     1       4.439   1.947  -7.305  0.00  0.00    +0.138 C 
BRANCH  19  20
ATOM     20  N   UNL     1       4.346   2.067  -8.753  0.00  0.00    -0.324 N 
ATOM     21  H   UNL     1       3.662   2.709  -9.120  0.00  0.00    +0.148 HD
BRANCH  20  22
ATOM     22  C   UNL     1       5.485   1.778  -9.498  0.00  0.00    +0.130 A 
ATOM     23  N   UNL     1       6.274   0.791  -9.037  0.00  0.00    -0.220 NA
ATOM     24  C   UNL     1       7.537   0.788  -9.450  0.00  0.00    +0.223 A 
ATOM     25  N   UNL     1       8.104   1.748 -10.178  0.00  0.00    -0.235 NA
ATOM     26  C   UNL     1       7.293   2.692 -10.694  0.00  0.00    +0.088 A 
ATOM     27  C   UNL     1       7.799   3.793 -11.386  0.00  0.00    +0.063 A 
ATOM     28  C   UNL     1       6.996   4.699 -12.093  0.00  0.00    +0.015 A 
ATOM     29  C   UNL     1       5.620   4.563 -12.033  0.00  0.00    +0.002 A 
ATOM     30  C   UNL     1       5.079   3.596 -11.189  0.00  0.00    +0.013 A 
ATOM     31  C   UNL     1       5.912   2.675 -10.493  0.00  0.00    +0.041 A 
BRANCH  27  32
ATOM     32  C   UNL     1       9.177   4.229 -11.096  0.00  0.00    +0.244 C 
ATOM     33  N   UNL     1       9.340   4.710  -9.821  0.00  0.00    -0.325 N 
ATOM     34  O   UNL     1      10.052   4.270 -11.945  0.00  0.00    -0.270 OA
ATOM     35  H   UNL     1      10.245   5.063  -9.543  0.00  0.00    +0.145 HD
ATOM     36  H   UNL     1       8.588   4.717  -9.144  0.00  0.00    +0.145 HD
ENDBRANCH  27  32
ENDBRANCH  20  22
ENDBRANCH  19  20
ENDBRANCH   5  19
TORSDOF 8
