
 OpenBabel10152418453D

 38 41  0  0  1  0  0  0  0  0999 V2000
    3.4340  -14.4700   13.3790 C   0  0  0  0  0  1  0  0  0  0  0  0
    4.1900  -14.1400   12.0880 C   0  0  2  0  0  3  0  0  0  0  0  0
    5.6580  -14.5330   12.2370 C   0  0  0  0  0  0  0  0  0  0  0  0
    6.1890  -15.0830   13.4060 C   0  0  0  0  0  3  0  0  0  0  0  0
    7.5480  -14.9750   13.6570 C   0  0  0  0  0  3  0  0  0  0  0  0
    8.4000  -14.5380   12.6520 C   0  0  0  0  0  3  0  0  0  0  0  0
    7.9390  -14.4110   11.3510 C   0  0  0  0  0  0  0  0  0  0  0  0
    6.5530  -14.3040   11.1710 C   0  0  0  0  0  3  0  0  0  0  0  0
    8.7560  -14.4270   10.2020 N   0  0  0  0  0  0  0  0  0  0  0  0
    9.8180  -13.6490    9.7840 C   0  0  0  0  0  0  0  0  0  0  0  0
   10.4120  -13.9370    8.7460 O   0  0  0  0  0  0  0  0  0  0  0  0
    8.6270  -15.2110    9.5720 H   0  0  0  0  0  0  0  0  0  0  0  0
   10.2490  -12.4370   10.5060 C   0  0  0  0  0  0  0  0  0  0  0  0
   10.3360  -11.2490    9.7680 C   0  0  0  0  0  3  0  0  0  0  0  0
   10.5550  -10.0410   10.4270 C   0  0  0  0  0  3  0  0  0  0  0  0
   10.6780  -10.0300   11.8140 C   0  0  0  0  0  0  0  0  0  0  0  0
   10.7890   -8.8520   12.4440 F   0  0  0  0  0  0  0  0  0  0  0  0
   10.6380  -11.2200   12.5420 C   0  0  0  0  0  0  0  0  0  0  0  0
   10.4820  -12.4430   11.8890 C   0  0  0  0  0  3  0  0  0  0  0  0
   10.6750  -11.1600   13.9080 O   0  0  0  0  0  0  0  0  0  0  0  0
   10.3730  -12.0060   14.2760 H   0  0  0  0  0  0  0  0  0  0  0  0
    3.8740  -12.7510   11.6970 N   0  0  0  0  0  0  0  0  0  0  0  0
    2.9870  -12.4200   12.0680 H   0  0  0  0  0  0  0  0  0  0  0  0
    4.7210  -11.6660   11.6420 C   0  0  0  0  0  0  0  0  0  0  0  0
    5.2640  -11.4090   12.8440 N   0  0  0  0  0  0  0  0  0  0  0  0
    6.3250  -10.6060   12.8580 C   0  0  0  0  0  3  0  0  0  0  0  0
    6.9150  -10.0720   11.7850 N   0  0  0  0  0  0  0  0  0  0  0  0
    6.3220  -10.2510   10.5830 C   0  0  0  0  0  0  0  0  0  0  0  0
    6.8850   -9.7570    9.3910 C   0  0  0  0  0  0  0  0  0  0  0  0
    6.2160   -9.8810    8.1580 C   0  0  0  0  0  3  0  0  0  0  0  0
    4.9920  -10.5270    8.0830 C   0  0  0  0  0  3  0  0  0  0  0  0
    4.4600  -11.0970    9.2320 C   0  0  0  0  0  3  0  0  0  0  0  0
    5.1300  -10.9960   10.4760 C   0  0  0  0  0  0  0  0  0  0  0  0
    8.2520   -9.1480    9.3260 C   0  0  0  0  0  0  0  0  0  0  0  0
    8.8360   -8.9880    8.1050 N   0  0  0  0  0  0  0  0  0  0  0  0
    8.8270   -8.7510   10.3360 O   0  0  0  0  0  0  0  0  0  0  0  0
    9.7430   -8.5480    8.0490 H   0  0  0  0  0  0  0  0  0  0  0  0
    8.3960   -9.3470    7.2640 H   0  0  0  0  0  0  0  0  0  0  0  0
  2  3  1  0  0  0  0
  2  1  1  1  0  0  0
  3  4  1  0  0  0  0
  4  5  2  0  0  0  0
  6  5  1  0  0  0  0
  7  6  2  0  0  0  0
  8  7  1  0  0  0  0
  8  3  2  0  0  0  0
  9  7  1  0  0  0  0
 10  9  1  0  0  0  0
 10 13  1  0  0  0  0
 11 10  2  0  0  0  0
 12  9  1  0  0  0  0
 13 19  1  0  0  0  0
 14 15  1  0  0  0  0
 14 13  2  0  0  0  0
 15 16  2  0  0  0  0
 16 17  1  0  0  0  0
 16 18  1  0  0  0  0
 18 20  1  0  0  0  0
 19 18  2  0  0  0  0
 20 21  1  0  0  0  0
 22 23  1  0  0  0  0
 22  2  1  0  0  0  0
 24 22  1  0  0  0  0
 24 25  1  0  0  0  0
 25 26  2  0  0  0  0
 27 26  1  0  0  0  0
 28 27  2  0  0  0  0
 29 28  1  0  0  0  0
 30 29  2  0  0  0  0
 31 30  1  0  0  0  0
 31 32  2  0  0  0  0
 32 33  1  0  0  0  0
 33 28  1  0  0  0  0
 33 24  2  0  0  0  0
 34 29  1  0  0  0  0
 34 36  2  0  0  0  0
 35 34  1  0  0  0  0
 37 35  1  0  0  0  0
 38 35  1  0  0  0  0
M  END
>  <minimizedAffinity>
19.7837715

$$$$
