REMARK  Name = 
REMARK  8 active torsions:
REMARK  status: ('A' for Active; 'I' for Inactive)
REMARK    1  A    between atoms: C_1  and  C_2
REMARK    2  A    between atoms: C_2  and  N_3
REMARK    3  A    between atoms: C_2  and  C_17
REMARK    4  A    between atoms: N_3  and  C_4
REMARK    5  A    between atoms: C_9  and  C_10
REMARK    6  A    between atoms: C_21  and  N_22
REMARK    7  A    between atoms: C_23  and  C_25
REMARK    8  A    between atoms: C_30  and  O_31
REMARK                            x       y       z     vdW  Elec       q    Type
REMARK                         _______ _______ _______ _____ _____    ______ ____
ROOT
ATOM      1  C   UNL     1       0.967   0.183  -0.340  0.00  0.00    +0.033 C 
ATOM      2  C   UNL     1       0.289   1.205   0.579  0.00  0.00    +0.099 C 
ENDROOT
BRANCH   2   3
ATOM      3  C   UNL     1      -1.227   1.106   0.427  0.00  0.00    -0.026 A 
ATOM      4  C   UNL     1      -1.978   1.984  -0.358  0.00  0.00    +0.005 A 
ATOM      5  C   UNL     1      -3.328   2.154  -0.094  0.00  0.00    +0.002 A 
ATOM      6  C   UNL     1      -3.971   1.289   0.780  0.00  0.00    +0.023 A 
ATOM      7  C   UNL     1      -3.333   0.142   1.225  0.00  0.00    +0.034 A 
ATOM      8  C   UNL     1      -1.935   0.111   1.134  0.00  0.00    +0.028 A 
BRANCH   7   9
ATOM      9  N   UNL     1      -3.989  -1.005   1.716  0.00  0.00    -0.281 N 
ATOM     10  C   UNL     1      -5.315  -1.391   1.764  0.00  0.00    +0.248 C 
ATOM     11  O   UNL     1      -5.609  -2.507   2.191  0.00  0.00    -0.270 OA
ATOM     12  H   UNL     1      -3.392  -1.765   2.024  0.00  0.00    +0.155 HD
BRANCH  10  13
ATOM     13  C   UNL     1      -6.418  -0.495   1.371  0.00  0.00    +0.041 A 
ATOM     14  C   UNL     1      -7.283  -0.062   2.385  0.00  0.00    +0.016 A 
ATOM     15  C   UNL     1      -8.226   0.927   2.112  0.00  0.00    +0.043 A 
ATOM     16  C   UNL     1      -8.292   1.477   0.835  0.00  0.00    +0.165 A 
ATOM     17  F   UNL     1      -9.135   2.495   0.612  0.00  0.00    -0.202 F 
ATOM     18  C   UNL     1      -7.462   1.010  -0.186  0.00  0.00    +0.153 A 
ATOM     19  C   UNL     1      -6.557  -0.023   0.058  0.00  0.00    +0.061 A 
BRANCH  18  20
ATOM     20  O   UNL     1      -7.496   1.634  -1.402  0.00  0.00    -0.504 OA
ATOM     21  H   UNL     1      -6.703   1.395  -1.909  0.00  0.00    +0.292 HD
ENDBRANCH  18  20
ENDBRANCH  10  13
ENDBRANCH   7   9
ENDBRANCH   2   3
BRANCH   2  22
ATOM     22  N   UNL     1       0.928   2.521   0.376  0.00  0.00    -0.322 N 
ATOM     23  H   UNL     1       1.674   2.504  -0.315  0.00  0.00    +0.148 HD
BRANCH  22  24
ATOM     24  C   UNL     1       0.328   3.758   0.294  0.00  0.00    +0.130 A 
ATOM     25  N   UNL     1       0.672   4.394  -0.838  0.00  0.00    -0.220 NA
ATOM     26  C   UNL     1      -0.077   5.437  -1.186  0.00  0.00    +0.223 A 
ATOM     27  N   UNL     1      -1.157   5.876  -0.533  0.00  0.00    -0.235 NA
ATOM     28  C   UNL     1      -1.456   5.299   0.653  0.00  0.00    +0.088 A 
ATOM     29  C   UNL     1      -2.592   5.669   1.398  0.00  0.00    +0.063 A 
ATOM     30  C   UNL     1      -2.846   5.117   2.668  0.00  0.00    +0.015 A 
ATOM     31  C   UNL     1      -1.994   4.165   3.206  0.00  0.00    +0.002 A 
ATOM     32  C   UNL     1      -0.915   3.724   2.451  0.00  0.00    +0.013 A 
ATOM     33  C   UNL     1      -0.657   4.256   1.164  0.00  0.00    +0.041 A 
BRANCH  29  34
ATOM     34  C   UNL     1      -3.645   6.595   0.873  0.00  0.00    +0.244 C 
ATOM     35  N   UNL     1      -3.587   6.972  -0.436  0.00  0.00    -0.325 N 
ATOM     36  O   UNL     1      -4.575   6.977   1.578  0.00  0.00    -0.270 OA
ATOM     37  H   UNL     1      -4.311   7.570  -0.807  0.00  0.00    +0.145 HD
ATOM     38  H   UNL     1      -2.804   6.702  -1.023  0.00  0.00    +0.145 HD
ENDBRANCH  29  34
ENDBRANCH  22  24
ENDBRANCH   2  22
TORSDOF 7
