REMARK  Name = 
REMARK  9 active torsions:
REMARK  status: ('A' for Active; 'I' for Inactive)
REMARK    1  A    between atoms: C_1  and  O_2
REMARK    2  A    between atoms: O_2  and  C_3
REMARK    3  A    between atoms: C_6  and  C_7
REMARK    4  A    between atoms: N_9  and  C_10
REMARK    5  A    between atoms: C_14  and  C_15
REMARK    6  A    between atoms: C_15  and  C_16
REMARK    7  A    between atoms: C_15  and  N_17
REMARK    8  A    between atoms: N_17  and  C_18
REMARK    9  A    between atoms: C_23  and  C_24
REMARK                            x       y       z     vdW  Elec       q    Type
REMARK                         _______ _______ _______ _____ _____    ______ ____
ROOT
ATOM      1  C   UNL     1       6.058  -2.181   3.785  0.00  0.00    +0.099 C 
ATOM      2  C   UNL     1       7.322  -2.516   4.583  0.00  0.00    +0.033 C 
ENDROOT
BRANCH   1   7
ATOM      3  C   UNL     1       4.572  -4.922   1.546  0.00  0.00    +0.034 A 
ATOM      4  C   UNL     1       5.606  -5.123   0.630  0.00  0.00    +0.023 A 
ATOM      5  C   UNL     1       6.731  -4.300   0.649  0.00  0.00    +0.002 A 
ATOM      6  C   UNL     1       6.866  -3.323   1.636  0.00  0.00    +0.005 A 
ATOM      7  C   UNL     1       5.874  -3.154   2.616  0.00  0.00    -0.026 A 
ATOM      8  C   UNL     1       4.698  -3.927   2.522  0.00  0.00    +0.028 A 
BRANCH   3  11
ATOM      9  C   UNL     1       2.232  -5.674   2.031  0.00  0.00    +0.250 C 
ATOM     10  O   UNL     1       1.638  -6.612   2.556  0.00  0.00    -0.270 OA
ATOM     11  N   UNL     1       3.503  -5.834   1.531  0.00  0.00    -0.281 N 
ATOM     12  H   UNL     1       3.724  -6.790   1.275  0.00  0.00    +0.155 HD
BRANCH   9  16
ATOM     13  C   UNL     1      -0.196  -2.329   1.158  0.00  0.00    +0.214 A 
ATOM     14  C   UNL     1       0.743  -2.719   0.212  0.00  0.00    +0.068 A 
ATOM     15  C   UNL     1       1.606  -3.775   0.512  0.00  0.00    +0.020 A 
ATOM     16  C   UNL     1       1.493  -4.426   1.741  0.00  0.00    +0.055 A 
ATOM     17  C   UNL     1       0.509  -3.990   2.613  0.00  0.00    +0.127 A 
ATOM     18  N   UNL     1      -0.318  -2.944   2.356  0.00  0.00    -0.221 NA
BRANCH  13  20
ATOM     19  C   UNL     1      -0.690  -0.252   0.158  0.00  0.00    +0.279 C 
ATOM     20  O   UNL     1      -1.126  -1.349   0.954  0.00  0.00    -0.480 OA
ENDBRANCH  13  20
ENDBRANCH   9  16
ENDBRANCH   3  11
ENDBRANCH   1   7
BRANCH   1  21
ATOM     21  N   UNL     1       6.135  -0.803   3.315  0.00  0.00    -0.322 N 
ATOM     22  H   UNL     1       7.032  -0.374   3.170  0.00  0.00    +0.148 HD
BRANCH  21  23
ATOM     23  C   UNL     1       5.004  -0.307   2.674  0.00  0.00    +0.130 A 
ATOM     24  N   UNL     1       3.820  -0.634   3.219  0.00  0.00    -0.220 NA
ATOM     25  C   UNL     1       2.751  -0.524   2.438  0.00  0.00    +0.223 A 
ATOM     26  N   UNL     1       2.775  -0.206   1.143  0.00  0.00    -0.235 NA
ATOM     27  C   UNL     1       3.953   0.169   0.615  0.00  0.00    +0.088 A 
ATOM     28  C   UNL     1       4.089   0.441  -0.748  0.00  0.00    +0.063 A 
ATOM     29  C   UNL     1       5.268   0.938  -1.323  0.00  0.00    +0.015 A 
ATOM     30  C   UNL     1       6.381   1.130  -0.524  0.00  0.00    +0.002 A 
ATOM     31  C   UNL     1       6.321   0.743   0.812  0.00  0.00    +0.013 A 
ATOM     32  C   UNL     1       5.118   0.239   1.383  0.00  0.00    +0.041 A 
BRANCH  28  33
ATOM     33  C   UNL     1       3.042  -0.031  -1.668  0.00  0.00    +0.244 C 
ATOM     34  N   UNL     1       3.254  -1.301  -2.138  0.00  0.00    -0.325 N 
ATOM     35  O   UNL     1       2.100   0.660  -2.020  0.00  0.00    -0.270 OA
ATOM     36  H   UNL     1       2.596  -1.691  -2.797  0.00  0.00    +0.145 HD
ATOM     37  H   UNL     1       4.032  -1.871  -1.828  0.00  0.00    +0.145 HD
ENDBRANCH  28  33
ENDBRANCH  21  23
ENDBRANCH   1  21
TORSDOF 7
