
 OpenBabel10152419303D

 29 32  0  0  0  0  0  0  0  0999 V2000
   -0.2980   -4.4620  -26.3160 C   0  0  0  0  0  0  0  0  0  0  0  0
    0.6500   -5.2850  -26.8150 N   0  0  0  0  0  0  0  0  0  0  0  0
    1.3570   -4.8420  -27.8630 C   0  0  0  0  0  0  0  0  0  0  0  0
    2.4200   -5.5740  -28.3820 N   0  0  0  0  0  0  0  0  0  0  0  0
    1.1690   -3.6320  -28.4210 N   0  0  0  0  0  0  0  0  0  0  0  0
    0.2180   -2.8390  -27.8780 C   0  0  0  0  0  3  0  0  0  0  0  0
   -0.5460   -3.1940  -26.7950 C   0  0  0  0  0  0  0  0  0  0  0  0
   -1.6770   -2.1020  -26.1120 Cl  0  0  0  0  0  0  0  0  0  0  0  0
    2.9200   -5.0230  -29.0630 H   0  0  0  0  0  0  0  0  0  0  0  0
    2.9020   -6.8540  -28.1010 C   0  0  0  0  0  0  0  0  0  0  0  0
    2.5130   -7.4750  -26.9050 C   0  0  0  0  0  3  0  0  0  0  0  0
    2.8900   -8.7930  -26.6130 C   0  0  0  0  0  3  0  0  0  0  0  0
    3.6780   -9.5210  -27.5110 C   0  0  0  0  0  0  0  0  0  0  0  0
    4.0900   -8.8970  -28.6920 C   0  0  0  0  0  3  0  0  0  0  0  0
    3.6890   -7.5890  -28.9910 C   0  0  0  0  0  3  0  0  0  0  0  0
    4.0650  -10.9010  -27.2530 C   0  0  0  0  0  0  0  0  0  0  0  0
    4.5190  -11.7910  -28.1140 N   0  0  0  0  0  0  0  0  0  0  0  0
    4.7160  -12.9540  -27.4070 N   0  0  0  0  0  0  0  0  0  0  0  0
    4.3700  -12.8010  -26.1370 N   0  0  0  0  0  0  0  0  0  0  0  0
    3.9580  -11.5310  -26.0430 N   0  0  0  0  0  0  0  0  0  0  0  0
    3.6010  -11.1840  -25.1640 H   0  0  0  0  0  0  0  0  0  0  0  0
   -0.9050   -4.9110  -25.1650 O   0  0  0  0  0  0  0  0  0  0  0  0
   -0.7550   -6.2490  -22.5620 F   0  0  0  0  0  0  0  0  0  0  0  0
   -0.9040   -6.9240  -23.7120 C   0  0  0  0  0  0  0  0  0  0  0  0
   -0.9650   -8.3160  -23.6410 C   0  0  0  0  0  3  0  0  0  0  0  0
   -1.1100   -9.0690  -24.8050 C   0  0  0  0  0  3  0  0  0  0  0  0
   -1.1980   -8.4260  -26.0380 C   0  0  0  0  0  3  0  0  0  0  0  0
   -1.1340   -7.0330  -26.1050 C   0  0  0  0  0  3  0  0  0  0  0  0
   -0.9790   -6.2680  -24.9420 C   0  0  0  0  0  0  0  0  0  0  0  0
  1 22  1  0  0  0  0
  2  1  2  0  0  0  0
  3  2  1  0  0  0  0
  4 10  1  0  0  0  0
  4  3  1  0  0  0  0
  5  6  1  0  0  0  0
  5  3  2  0  0  0  0
  6  7  2  0  0  0  0
  7  1  1  0  0  0  0
  7  8  1  0  0  0  0
  9  4  1  0  0  0  0
 10 11  1  0  0  0  0
 11 12  2  0  0  0  0
 13 16  1  0  0  0  0
 13 12  1  0  0  0  0
 14 13  2  0  0  0  0
 15 14  1  0  0  0  0
 15 10  2  0  0  0  0
 16 20  1  0  0  0  0
 17 18  1  0  0  0  0
 17 16  2  0  0  0  0
 18 19  2  0  0  0  0
 19 20  1  0  0  0  0
 20 21  1  0  0  0  0
 22 29  1  0  0  0  0
 24 25  1  0  0  0  0
 24 23  1  0  0  0  0
 26 25  2  0  0  0  0
 27 26  1  0  0  0  0
 28 27  2  0  0  0  0
 28 29  1  0  0  0  0
 29 24  2  0  0  0  0
M  END
>  <minimizedAffinity>
-7.86166811

$$$$
