
 OpenBabel10152419303D

 29 32  0  0  0  0  0  0  0  0999 V2000
    1.6060   -7.3310  -26.2630 C   0  0  0  0  0  0  0  0  0  0  0  0
    0.6940   -7.8760  -25.4270 N   0  0  0  0  0  0  0  0  0  0  0  0
   -0.5880   -7.5370  -25.6120 C   0  0  0  0  0  0  0  0  0  0  0  0
   -1.6080   -8.1220  -24.8680 N   0  0  0  0  0  0  0  0  0  0  0  0
   -0.9960   -6.7000  -26.5830 N   0  0  0  0  0  0  0  0  0  0  0  0
   -0.0490   -6.1910  -27.4030 C   0  0  0  0  0  3  0  0  0  0  0  0
    1.2860   -6.4900  -27.3060 C   0  0  0  0  0  0  0  0  0  0  0  0
    2.4180   -5.8690  -28.4330 Cl  0  0  0  0  0  0  0  0  0  0  0  0
   -2.5050   -7.8570  -25.2440 H   0  0  0  0  0  0  0  0  0  0  0  0
   -1.5900   -8.9950  -23.7790 C   0  0  0  0  0  0  0  0  0  0  0  0
   -2.0700   -8.5430  -22.5410 C   0  0  0  0  0  3  0  0  0  0  0  0
   -2.1620   -9.4020  -21.4380 C   0  0  0  0  0  3  0  0  0  0  0  0
   -1.7630  -10.7390  -21.5450 C   0  0  0  0  0  0  0  0  0  0  0  0
   -1.2590  -11.1880  -22.7700 C   0  0  0  0  0  3  0  0  0  0  0  0
   -1.1940  -10.3310  -23.8760 C   0  0  0  0  0  3  0  0  0  0  0  0
   -1.8700  -11.6670  -20.4280 C   0  0  0  0  0  0  0  0  0  0  0  0
   -2.9660  -12.1530  -19.8770 N   0  0  0  0  0  0  0  0  0  0  0  0
   -2.5590  -12.9590  -18.8410 N   0  0  0  0  0  0  0  0  0  0  0  0
   -1.2390  -12.9580  -18.7300 N   0  0  0  0  0  0  0  0  0  0  0  0
   -0.8120  -12.1500  -19.7070 N   0  0  0  0  0  0  0  0  0  0  0  0
    0.1750  -11.9560  -19.8010 H   0  0  0  0  0  0  0  0  0  0  0  0
    2.8870   -7.8100  -26.1110 O   0  0  0  0  0  0  0  0  0  0  0  0
    2.1930  -10.4050  -24.9390 F   0  0  0  0  0  0  0  0  0  0  0  0
    2.8810  -10.2930  -26.0850 C   0  0  0  0  0  0  0  0  0  0  0  0
    3.2890  -11.4700  -26.7110 C   0  0  0  0  0  3  0  0  0  0  0  0
    4.0160  -11.4140  -27.9000 C   0  0  0  0  0  3  0  0  0  0  0  0
    4.3280  -10.1770  -28.4610 C   0  0  0  0  0  3  0  0  0  0  0  0
    3.9200   -9.0000  -27.8290 C   0  0  0  0  0  3  0  0  0  0  0  0
    3.1980   -9.0470  -26.6300 C   0  0  0  0  0  0  0  0  0  0  0  0
  1 22  1  0  0  0  0
  1  2  2  0  0  0  0
  3  2  1  0  0  0  0
  3  4  1  0  0  0  0
  4 10  1  0  0  0  0
  5  3  2  0  0  0  0
  6  7  2  0  0  0  0
  6  5  1  0  0  0  0
  7  1  1  0  0  0  0
  8  7  1  0  0  0  0
  9  4  1  0  0  0  0
 10 11  1  0  0  0  0
 11 12  2  0  0  0  0
 13 12  1  0  0  0  0
 13 16  1  0  0  0  0
 14 13  2  0  0  0  0
 15 10  2  0  0  0  0
 15 14  1  0  0  0  0
 16 17  2  0  0  0  0
 16 20  1  0  0  0  0
 17 18  1  0  0  0  0
 18 19  2  0  0  0  0
 20 19  1  0  0  0  0
 21 20  1  0  0  0  0
 24 23  1  0  0  0  0
 25 24  2  0  0  0  0
 26 25  1  0  0  0  0
 27 26  2  0  0  0  0
 27 28  1  0  0  0  0
 28 29  2  0  0  0  0
 29 22  1  0  0  0  0
 29 24  1  0  0  0  0
M  END
>  <minimizedAffinity>
-9.05043125

$$$$
