
 OpenBabel10152419303D

 29 32  0  0  0  0  0  0  0  0999 V2000
   -0.7020  -11.0980  -22.1500 C   0  0  0  0  0  0  0  0  0  0  0  0
   -0.8980   -9.9010  -22.7460 N   0  0  0  0  0  0  0  0  0  0  0  0
   -1.7800   -9.0690  -22.1780 C   0  0  0  0  0  0  0  0  0  0  0  0
   -1.9750   -7.7790  -22.6600 N   0  0  0  0  0  0  0  0  0  0  0  0
   -2.4600   -9.3690  -21.0570 N   0  0  0  0  0  0  0  0  0  0  0  0
   -2.2210  -10.5730  -20.4890 C   0  0  0  0  0  3  0  0  0  0  0  0
   -1.3250  -11.4870  -20.9840 C   0  0  0  0  0  0  0  0  0  0  0  0
   -1.0170  -12.9590  -20.1630 Cl  0  0  0  0  0  0  0  0  0  0  0  0
   -2.5590   -7.2570  -22.0250 H   0  0  0  0  0  0  0  0  0  0  0  0
   -1.4870   -7.1180  -23.7890 C   0  0  0  0  0  0  0  0  0  0  0  0
   -0.7150   -5.9600  -23.6150 C   0  0  0  0  0  3  0  0  0  0  0  0
   -0.1230   -5.3080  -24.7050 C   0  0  0  0  0  3  0  0  0  0  0  0
   -0.3000   -5.7970  -26.0040 C   0  0  0  0  0  0  0  0  0  0  0  0
   -1.0910   -6.9350  -26.1860 C   0  0  0  0  0  3  0  0  0  0  0  0
   -1.6580   -7.5970  -25.0900 C   0  0  0  0  0  3  0  0  0  0  0  0
    0.3220   -5.1610  -27.1570 C   0  0  0  0  0  0  0  0  0  0  0  0
    0.9770   -5.7370  -28.1470 N   0  0  0  0  0  0  0  0  0  0  0  0
    1.4010   -4.7250  -28.9770 N   0  0  0  0  0  0  0  0  0  0  0  0
    1.0400   -3.5420  -28.5040 N   0  0  0  0  0  0  0  0  0  0  0  0
    0.3800   -3.8100  -27.3710 N   0  0  0  0  0  0  0  0  0  0  0  0
    0.0360   -3.0510  -26.8000 H   0  0  0  0  0  0  0  0  0  0  0  0
    0.3040  -11.8590  -22.6990 O   0  0  0  0  0  0  0  0  0  0  0  0
   -1.2090  -12.5500  -25.1120 F   0  0  0  0  0  0  0  0  0  0  0  0
   -0.0160  -11.9390  -25.1600 C   0  0  0  0  0  0  0  0  0  0  0  0
    0.5130  -11.6520  -26.4180 C   0  0  0  0  0  3  0  0  0  0  0  0
    1.7540  -11.0250  -26.5280 C   0  0  0  0  0  3  0  0  0  0  0  0
    2.4600  -10.6830  -25.3760 C   0  0  0  0  0  3  0  0  0  0  0  0
    1.9280  -10.9750  -24.1190 C   0  0  0  0  0  3  0  0  0  0  0  0
    0.6870  -11.6130  -23.9980 C   0  0  0  0  0  0  0  0  0  0  0  0
  1  7  1  0  0  0  0
  2  3  1  0  0  0  0
  2  1  2  0  0  0  0
  3  5  2  0  0  0  0
  4  3  1  0  0  0  0
  4  9  1  0  0  0  0
  5  6  1  0  0  0  0
  7  6  2  0  0  0  0
  7  8  1  0  0  0  0
 10 11  1  0  0  0  0
 10  4  1  0  0  0  0
 12 11  2  0  0  0  0
 13 12  1  0  0  0  0
 14 13  2  0  0  0  0
 14 15  1  0  0  0  0
 15 10  2  0  0  0  0
 16 13  1  0  0  0  0
 17 16  2  0  0  0  0
 18 19  2  0  0  0  0
 18 17  1  0  0  0  0
 19 20  1  0  0  0  0
 20 16  1  0  0  0  0
 20 21  1  0  0  0  0
 22  1  1  0  0  0  0
 24 23  1  0  0  0  0
 24 29  1  0  0  0  0
 25 24  2  0  0  0  0
 26 25  1  0  0  0  0
 26 27  2  0  0  0  0
 27 28  1  0  0  0  0
 28 29  2  0  0  0  0
 29 22  1  0  0  0  0
M  END
>  <minimizedAffinity>
-8.60297298

$$$$
