
 OpenBabel10152419303D

 29 32  0  0  0  0  0  0  0  0999 V2000
    2.5960  -10.5630  -25.9120 C   0  0  0  0  0  0  0  0  0  0  0  0
    1.5390  -10.6710  -25.0770 N   0  0  0  0  0  0  0  0  0  0  0  0
    0.9520  -11.8710  -24.9830 C   0  0  0  0  0  0  0  0  0  0  0  0
   -0.0770  -12.1050  -24.0760 N   0  0  0  0  0  0  0  0  0  0  0  0
    1.3690  -12.9510  -25.6670 N   0  0  0  0  0  0  0  0  0  0  0  0
    2.4380  -12.7970  -26.4800 C   0  0  0  0  0  3  0  0  0  0  0  0
    3.1180  -11.6150  -26.6320 C   0  0  0  0  0  0  0  0  0  0  0  0
    4.5150  -11.5180  -27.6190 Cl  0  0  0  0  0  0  0  0  0  0  0  0
   -0.2910  -13.0900  -24.0440 H   0  0  0  0  0  0  0  0  0  0  0  0
   -0.7890  -11.2550  -23.2270 C   0  0  0  0  0  0  0  0  0  0  0  0
   -0.9820  -11.6390  -21.8920 C   0  0  0  0  0  3  0  0  0  0  0  0
   -1.6060  -10.7870  -20.9720 C   0  0  0  0  0  3  0  0  0  0  0  0
   -2.0650   -9.5270  -21.3710 C   0  0  0  0  0  0  0  0  0  0  0  0
   -1.9000   -9.1500  -22.7080 C   0  0  0  0  0  3  0  0  0  0  0  0
   -1.2510   -9.9960  -23.6160 C   0  0  0  0  0  3  0  0  0  0  0  0
   -2.6940   -8.6040  -20.4360 C   0  0  0  0  0  0  0  0  0  0  0  0
   -2.3840   -8.3920  -19.1720 N   0  0  0  0  0  0  0  0  0  0  0  0
   -3.2760   -7.4570  -18.7010 N   0  0  0  0  0  0  0  0  0  0  0  0
   -4.1400   -7.1100  -19.6440 N   0  0  0  0  0  0  0  0  0  0  0  0
   -3.7860   -7.8270  -20.7170 N   0  0  0  0  0  0  0  0  0  0  0  0
   -4.3310   -7.7630  -21.5650 H   0  0  0  0  0  0  0  0  0  0  0  0
    3.2400   -9.3470  -25.8750 O   0  0  0  0  0  0  0  0  0  0  0  0
    0.9520   -7.6450  -25.1970 F   0  0  0  0  0  0  0  0  0  0  0  0
    1.6520   -7.4930  -26.3310 C   0  0  0  0  0  0  0  0  0  0  0  0
    1.2420   -6.4950  -27.2150 C   0  0  0  0  0  3  0  0  0  0  0  0
    1.9280   -6.2980  -28.4140 C   0  0  0  0  0  3  0  0  0  0  0  0
    3.0250   -7.1000  -28.7220 C   0  0  0  0  0  3  0  0  0  0  0  0
    3.4300   -8.1000  -27.8360 C   0  0  0  0  0  3  0  0  0  0  0  0
    2.7430   -8.3110  -26.6340 C   0  0  0  0  0  0  0  0  0  0  0  0
  1 22  1  0  0  0  0
  1  2  2  0  0  0  0
  2  3  1  0  0  0  0
  3  4  1  0  0  0  0
  4  9  1  0  0  0  0
  4 10  1  0  0  0  0
  5  3  2  0  0  0  0
  6  5  1  0  0  0  0
  7  6  2  0  0  0  0
  7  1  1  0  0  0  0
  8  7  1  0  0  0  0
 10 11  1  0  0  0  0
 11 12  2  0  0  0  0
 13 12  1  0  0  0  0
 13 16  1  0  0  0  0
 14 13  2  0  0  0  0
 15 10  2  0  0  0  0
 15 14  1  0  0  0  0
 16 17  2  0  0  0  0
 17 18  1  0  0  0  0
 19 18  2  0  0  0  0
 20 16  1  0  0  0  0
 20 19  1  0  0  0  0
 21 20  1  0  0  0  0
 24 23  1  0  0  0  0
 25 24  2  0  0  0  0
 26 25  1  0  0  0  0
 27 26  2  0  0  0  0
 27 28  1  0  0  0  0
 28 29  2  0  0  0  0
 29 24  1  0  0  0  0
 29 22  1  0  0  0  0
M  END
>  <minimizedAffinity>
-7.56304932

$$$$
