
 OpenBabel10152419303D

 29 32  0  0  0  0  0  0  0  0999 V2000
    2.6650   -7.2960  -28.4330 C   0  0  0  0  0  0  0  0  0  0  0  0
    2.1220   -7.7470  -27.2810 N   0  0  0  0  0  0  0  0  0  0  0  0
    2.8480   -8.6100  -26.5570 C   0  0  0  0  0  0  0  0  0  0  0  0
    2.4170   -9.0520  -25.3100 N   0  0  0  0  0  0  0  0  0  0  0  0
    4.0730   -9.0300  -26.9210 N   0  0  0  0  0  0  0  0  0  0  0  0
    4.5790   -8.5410  -28.0750 C   0  0  0  0  0  3  0  0  0  0  0  0
    3.9230   -7.6410  -28.8770 C   0  0  0  0  0  0  0  0  0  0  0  0
    4.6650   -7.0040  -30.2840 Cl  0  0  0  0  0  0  0  0  0  0  0  0
    3.1510   -9.5720  -24.8550 H   0  0  0  0  0  0  0  0  0  0  0  0
    1.2220   -8.8670  -24.6130 C   0  0  0  0  0  0  0  0  0  0  0  0
    0.6610   -7.5820  -24.5600 C   0  0  0  0  0  3  0  0  0  0  0  0
   -0.5820   -7.3550  -23.9550 C   0  0  0  0  0  3  0  0  0  0  0  0
   -1.2930   -8.4110  -23.3750 C   0  0  0  0  0  0  0  0  0  0  0  0
   -0.7250   -9.6890  -23.4000 C   0  0  0  0  0  3  0  0  0  0  0  0
    0.5050   -9.9150  -24.0300 C   0  0  0  0  0  3  0  0  0  0  0  0
   -2.5990   -8.2160  -22.7610 C   0  0  0  0  0  0  0  0  0  0  0  0
   -3.7140   -7.8080  -23.3360 N   0  0  0  0  0  0  0  0  0  0  0  0
   -4.6670   -7.7530  -22.3470 N   0  0  0  0  0  0  0  0  0  0  0  0
   -4.1540   -8.0950  -21.1740 N   0  0  0  0  0  0  0  0  0  0  0  0
   -2.8700   -8.3740  -21.4290 N   0  0  0  0  0  0  0  0  0  0  0  0
   -2.2520   -8.6240  -20.6690 H   0  0  0  0  0  0  0  0  0  0  0  0
    1.9370   -6.3180  -29.0710 O   0  0  0  0  0  0  0  0  0  0  0  0
   -0.5130   -7.2050  -27.7290 F   0  0  0  0  0  0  0  0  0  0  0  0
   -0.0850   -5.9340  -27.6830 C   0  0  0  0  0  0  0  0  0  0  0  0
   -0.8660   -5.0150  -26.9820 C   0  0  0  0  0  3  0  0  0  0  0  0
   -0.4740   -3.6780  -26.9080 C   0  0  0  0  0  3  0  0  0  0  0  0
    0.7010   -3.2670  -27.5340 C   0  0  0  0  0  3  0  0  0  0  0  0
    1.4780   -4.1900  -28.2370 C   0  0  0  0  0  3  0  0  0  0  0  0
    1.0880   -5.5320  -28.3250 C   0  0  0  0  0  0  0  0  0  0  0  0
  1  2  2  0  0  0  0
  2  3  1  0  0  0  0
  3  4  1  0  0  0  0
  4  9  1  0  0  0  0
  4 10  1  0  0  0  0
  5  3  2  0  0  0  0
  6  5  1  0  0  0  0
  7  1  1  0  0  0  0
  7  6  2  0  0  0  0
  8  7  1  0  0  0  0
 10 11  2  0  0  0  0
 10 15  1  0  0  0  0
 11 12  1  0  0  0  0
 12 13  2  0  0  0  0
 13 16  1  0  0  0  0
 14 13  1  0  0  0  0
 15 14  2  0  0  0  0
 16 20  1  0  0  0  0
 17 16  2  0  0  0  0
 17 18  1  0  0  0  0
 18 19  2  0  0  0  0
 20 19  1  0  0  0  0
 20 21  1  0  0  0  0
 22  1  1  0  0  0  0
 22 29  1  0  0  0  0
 23 24  1  0  0  0  0
 24 25  1  0  0  0  0
 25 26  2  0  0  0  0
 27 26  1  0  0  0  0
 28 27  2  0  0  0  0
 29 28  1  0  0  0  0
 29 24  2  0  0  0  0
M  END
>  <minimizedAffinity>
-7.9184289

$$$$
