REMARK  Name = 
REMARK  4 active torsions:
REMARK  status: ('A' for Active; 'I' for Inactive)
REMARK    1  A    between atoms: C_7  and  O_8
REMARK    2  A    between atoms: O_8  and  C_9
REMARK    3  A    between atoms: N_12  and  C_13
REMARK    4  A    between atoms: C_16  and  C_17
REMARK                            x       y       z     vdW  Elec       q    Type
REMARK                         _______ _______ _______ _____ _____    ______ ____
ROOT
ATOM      1  C   UNL     1       2.287   2.218  -0.346  0.00  0.00    +0.244 A 
ATOM      2  N   UNL     1       2.807   2.791   0.762  0.00  0.00    -0.178 NA
ATOM      3  C   UNL     1       4.135   2.962   0.799  0.00  0.00    +0.223 A 
ATOM      4  N   UNL     1       4.751   3.632   1.851  0.00  0.00    -0.284 N 
ATOM      5  N   UNL     1       4.953   2.600  -0.206  0.00  0.00    -0.221 NA
ATOM      6  C   UNL     1       4.385   2.043  -1.299  0.00  0.00    +0.139 A 
ATOM      7  C   UNL     1       3.035   1.842  -1.440  0.00  0.00    +0.121 A 
ATOM      8 CL   UNL     1       2.381   1.204  -2.890  0.00  0.00    -0.076 Cl
ATOM      9  H   UNL     1       5.723   3.792   1.637  0.00  0.00    +0.155 HD
ENDROOT
BRANCH   4  10
ATOM     10  C   UNL     1       4.261   4.125   3.062  0.00  0.00    +0.034 A 
ATOM     11  C   UNL     1       4.889   5.236   3.644  0.00  0.00    +0.024 A 
ATOM     12  C   UNL     1       4.385   5.830   4.809  0.00  0.00    +0.018 A 
ATOM     13  C   UNL     1       3.240   5.317   5.428  0.00  0.00    +0.070 A 
ATOM     14  C   UNL     1       2.626   4.193   4.867  0.00  0.00    +0.018 A 
ATOM     15  C   UNL     1       3.119   3.620   3.688  0.00  0.00    +0.024 A 
BRANCH  13  16
ATOM     16  C   UNL     1       2.673   5.925   6.624  0.00  0.00    +0.373 C 
ATOM     17  N   UNL     1       2.013   5.333   7.601  0.00  0.00    +0.105 NA
ATOM     18  N   UNL     1       1.655   6.322   8.487  0.00  0.00    +0.113 NA
ATOM     19  N   UNL     1       2.061   7.509   8.061  0.00  0.00    +0.060 NA
ATOM     20  N   UNL     1       2.684   7.265   6.902  0.00  0.00    -0.084 N 
ATOM     21  H   UNL     1       3.051   8.034   6.359  0.00  0.00    +0.329 HD
ENDBRANCH  13  16
ENDBRANCH   4  10
BRANCH   1  22
ATOM     22  O   UNL     1       0.912   2.183  -0.387  0.00  0.00    -0.434 OA
BRANCH  22  29
ATOM     23  F   UNL     1       2.188  -0.320   0.447  0.00  0.00    -0.202 F 
ATOM     24  C   UNL     1       0.861  -0.205   0.291  0.00  0.00    +0.165 A 
ATOM     25  C   UNL     1       0.083  -1.340   0.519  0.00  0.00    +0.042 A 
ATOM     26  C   UNL     1      -1.302  -1.281   0.363  0.00  0.00    +0.003 A 
ATOM     27  C   UNL     1      -1.904  -0.083  -0.017  0.00  0.00    +0.004 A 
ATOM     28  C   UNL     1      -1.121   1.050  -0.247  0.00  0.00    +0.049 A 
ATOM     29  C   UNL     1       0.271   0.998  -0.102  0.00  0.00    +0.165 A 
ENDBRANCH  22  29
ENDBRANCH   1  22
TORSDOF 4
