
 OpenBabel10152419353D

 38 41  0  0  1  0  0  0  0  0999 V2000
    3.7920  -10.1670  -26.7850 C   0  0  0  0  0  0  0  0  0  0  0  0
    3.7570  -11.0270  -27.8880 C   0  0  0  0  0  3  0  0  0  0  0  0
    3.1140  -12.2620  -27.8140 C   0  0  0  0  0  3  0  0  0  0  0  0
    2.4260  -12.6240  -26.6580 C   0  0  0  0  0  3  0  0  0  0  0  0
    2.3840  -11.7640  -25.5470 C   0  0  0  0  0  0  0  0  0  0  0  0
    3.1250  -10.5460  -25.6070 C   0  0  0  0  0  3  0  0  0  0  0  0
    3.8940   -7.7280  -27.5710 C   0  0  0  0  0  0  0  0  0  0  0  0
    4.7220   -6.9790  -28.0960 O   0  0  0  0  0  0  0  0  0  0  0  0
    4.3570   -8.8980  -27.0200 N   0  0  0  0  0  0  0  0  0  0  0  0
    5.3480   -8.8250  -26.8240 H   0  0  0  0  0  0  0  0  0  0  0  0
    0.5060   -6.3730  -27.3230 C   0  0  0  0  0  0  0  0  0  0  0  0
    1.8050   -6.2390  -27.8730 C   0  0  0  0  0  3  0  0  0  0  0  0
    2.5350   -7.3020  -27.3940 C   0  0  0  0  0  0  0  0  0  0  0  0
    1.6140   -8.0680  -26.7280 N   0  0  0  0  0  0  0  0  0  0  0  0
    0.3890   -7.5210  -26.6430 N   0  0  0  0  0  0  0  0  0  0  0  0
    1.7730   -8.9770  -26.3060 H   0  0  0  0  0  0  0  0  0  0  0  0
   -1.9070   -5.8330  -26.7140 C   0  0  0  0  0  1  0  0  0  0  0  0
   -0.6090   -5.3640  -27.3610 C   0  0  0  0  0  3  0  0  0  0  0  0
   -0.1400   -4.0350  -26.7630 C   0  0  0  0  0  1  0  0  0  0  0  0
    1.4160  -12.0380  -24.3830 C   0  0  1  0  0  3  0  0  0  0  0  0
    2.1290  -12.8460  -23.2940 C   0  0  0  0  0  1  0  0  0  0  0  0
    0.9030  -10.8170  -23.7520 N   0  0  0  0  0  0  0  0  0  0  0  0
    1.5460  -10.0770  -23.5280 H   0  0  0  0  0  0  0  0  0  0  0  0
   -0.4360  -10.4970  -23.9830 C   0  0  0  0  0  0  0  0  0  0  0  0
   -0.8580  -10.5020  -25.2590 N   0  0  0  0  0  0  0  0  0  0  0  0
   -1.8530   -9.6670  -25.5520 C   0  0  0  0  0  3  0  0  0  0  0  0
   -2.3550   -8.7560  -24.7200 N   0  0  0  0  0  0  0  0  0  0  0  0
   -1.9090   -8.8000  -23.4450 C   0  0  0  0  0  0  0  0  0  0  0  0
   -1.9620   -7.7110  -22.5730 C   0  0  1  0  0  3  0  0  0  0  0  0
   -2.0340   -7.9090  -21.1880 C   0  0  0  0  0  3  0  0  0  0  0  0
   -1.5810   -9.1120  -20.6740 C   0  0  0  0  0  3  0  0  0  0  0  0
   -1.0100  -10.0240  -21.5590 C   0  0  0  0  0  2  0  0  0  0  0  0
   -1.1360   -9.8370  -22.9660 C   0  0  0  0  0  0  0  0  0  0  0  0
   -0.9500   -6.6840  -23.0080 C   0  0  0  0  0  0  0  0  0  0  0  0
    0.1080   -7.0480  -23.7980 N   0  0  0  0  0  0  0  0  0  0  0  0
   -1.1330   -5.4870  -22.8260 O   0  0  0  0  0  0  0  0  0  0  0  0
    0.6420   -6.2820  -24.1910 H   0  0  0  0  0  0  0  0  0  0  0  0
    0.2710   -7.9720  -24.1620 H   0  0  0  0  0  0  0  0  0  0  0  0
  1  6  1  0  0  0  0
  2  3  1  0  0  0  0
  2  1  2  0  0  0  0
  3  4  2  0  0  0  0
  4  5  1  0  0  0  0
  5 20  1  0  0  0  0
  6  5  2  0  0  0  0
  7 13  1  0  0  0  0
  7  9  1  0  0  0  0
  8  7  2  0  0  0  0
  9 10  1  0  0  0  0
  9  1  1  0  0  0  0
 11 15  2  0  0  0  0
 12 13  2  0  0  0  0
 12 11  1  0  0  0  0
 13 14  1  0  0  0  0
 14 15  1  0  0  0  0
 14 16  1  0  0  0  0
 18 11  1  0  0  0  0
 18 19  1  0  0  0  0
 18 17  1  0  0  0  0
 20 22  1  0  0  0  0
 20 21  1  1  0  0  0
 22 23  1  0  0  0  0
 24 22  1  0  0  0  0
 24 33  1  0  0  0  0
 25 24  2  0  0  0  0
 26 25  1  0  0  0  0
 26 27  2  0  0  0  0
 27 28  1  0  0  0  0
 28 33  2  0  0  0  0
 28 29  1  0  0  0  0
 29 34  1  1  0  0  0
 29 30  1  0  0  0  0
 30 31  2  0  0  0  0
 32 31  1  0  0  0  0
 33 32  1  0  0  0  0
 34 36  2  0  0  0  0
 35 34  1  0  0  0  0
 37 35  1  0  0  0  0
 38 35  1  0  0  0  0
M  END
>  <minimizedAffinity>
-8.55010319

$$$$
