
 OpenBabel10152419353D

 38 41  0  0  1  0  0  0  0  0999 V2000
   -0.5140   -5.4350  -24.0570 C   0  0  0  0  0  0  0  0  0  0  0  0
   -0.9380   -4.1030  -24.0980 C   0  0  0  0  0  3  0  0  0  0  0  0
   -0.8280   -3.3500  -25.2660 C   0  0  0  0  0  3  0  0  0  0  0  0
   -0.3650   -3.9440  -26.4390 C   0  0  0  0  0  3  0  0  0  0  0  0
    0.0150   -5.2970  -26.4580 C   0  0  0  0  0  0  0  0  0  0  0  0
   -0.0160   -6.0250  -25.2320 C   0  0  0  0  0  3  0  0  0  0  0  0
   -1.5050   -7.2620  -22.5530 C   0  0  0  0  0  0  0  0  0  0  0  0
   -1.9880   -7.3400  -21.4210 O   0  0  0  0  0  0  0  0  0  0  0  0
   -0.7930   -6.1270  -22.8620 N   0  0  0  0  0  0  0  0  0  0  0  0
   -0.4820   -5.6680  -22.0150 H   0  0  0  0  0  0  0  0  0  0  0  0
   -1.4320  -10.3150  -24.5650 C   0  0  0  0  0  0  0  0  0  0  0  0
   -1.1130   -9.6930  -23.3330 C   0  0  0  0  0  3  0  0  0  0  0  0
   -1.5400   -8.3890  -23.4400 C   0  0  0  0  0  0  0  0  0  0  0  0
   -2.2060   -8.3520  -24.6380 N   0  0  0  0  0  0  0  0  0  0  0  0
   -2.1340   -9.4890  -25.3520 N   0  0  0  0  0  0  0  0  0  0  0  0
   -2.7250   -7.5690  -25.0180 H   0  0  0  0  0  0  0  0  0  0  0  0
   -0.1770  -11.6510  -26.3330 C   0  0  0  0  0  1  0  0  0  0  0  0
   -0.9900  -11.6710  -25.0430 C   0  0  0  0  0  3  0  0  0  0  0  0
   -0.2440  -12.4080  -23.9290 C   0  0  0  0  0  1  0  0  0  0  0  0
    0.2700   -6.0170  -27.7940 C   0  0  1  0  0  3  0  0  0  0  0  0
    1.2270   -5.1870  -28.6560 C   0  0  0  0  0  1  0  0  0  0  0  0
    0.8720   -7.3450  -27.6340 N   0  0  0  0  0  0  0  0  0  0  0  0
    0.4800   -8.1220  -28.1370 H   0  0  0  0  0  0  0  0  0  0  0  0
    2.2180   -7.3910  -27.2690 C   0  0  0  0  0  0  0  0  0  0  0  0
    3.0870   -6.7030  -28.0290 N   0  0  0  0  0  0  0  0  0  0  0  0
    4.3250   -7.1870  -28.0920 C   0  0  0  0  0  3  0  0  0  0  0  0
    4.7180   -8.3500  -27.5740 N   0  0  0  0  0  0  0  0  0  0  0  0
    3.8140   -8.9980  -26.8060 C   0  0  0  0  0  0  0  0  0  0  0  0
    3.8600  -10.3700  -26.5550 C   0  0  1  0  0  3  0  0  0  0  0  0
    3.3090  -10.9000  -25.3800 C   0  0  0  0  0  2  0  0  0  0  0  0
    2.3330  -10.1670  -24.7260 C   0  0  0  0  0  3  0  0  0  0  0  0
    1.9020   -8.9830  -25.3200 C   0  0  0  0  0  3  0  0  0  0  0  0
    2.6280   -8.4170  -26.4070 C   0  0  0  0  0  0  0  0  0  0  0  0
    3.4880  -11.1130  -27.8120 C   0  0  0  0  0  0  0  0  0  0  0  0
    3.9790  -10.7070  -29.0230 N   0  0  0  0  0  0  0  0  0  0  0  0
    2.8960  -12.1840  -27.7710 O   0  0  0  0  0  0  0  0  0  0  0  0
    3.8290  -11.3520  -29.7910 H   0  0  0  0  0  0  0  0  0  0  0  0
    4.6200   -9.9450  -29.1670 H   0  0  0  0  0  0  0  0  0  0  0  0
  1  9  1  0  0  0  0
  2  1  1  0  0  0  0
  3  2  2  0  0  0  0
  4  3  1  0  0  0  0
  5  4  2  0  0  0  0
  5  6  1  0  0  0  0
  6  1  2  0  0  0  0
  7  8  2  0  0  0  0
  9  7  1  0  0  0  0
  9 10  1  0  0  0  0
 11 12  1  0  0  0  0
 13 12  2  0  0  0  0
 13  7  1  0  0  0  0
 14 13  1  0  0  0  0
 15 14  1  0  0  0  0
 15 11  2  0  0  0  0
 16 14  1  0  0  0  0
 17 18  1  0  0  0  0
 18 11  1  0  0  0  0
 18 19  1  0  0  0  0
 20 21  1  6  0  0  0
 20 22  1  0  0  0  0
 20  5  1  0  0  0  0
 22 24  1  0  0  0  0
 23 22  1  0  0  0  0
 24 33  1  0  0  0  0
 25 24  2  0  0  0  0
 26 25  1  0  0  0  0
 26 27  2  0  0  0  0
 27 28  1  0  0  0  0
 28 29  1  0  0  0  0
 28 33  2  0  0  0  0
 29 34  1  6  0  0  0
 29 30  1  0  0  0  0
 30 31  1  0  0  0  0
 32 31  2  0  0  0  0
 33 32  1  0  0  0  0
 34 36  2  0  0  0  0
 35 34  1  0  0  0  0
 37 35  1  0  0  0  0
 38 35  1  0  0  0  0
M  END
>  <minimizedAffinity>
-7.24621725

$$$$
