
 OpenBabel10152419353D

 38 41  0  0  1  0  0  0  0  0999 V2000
    3.7920  -10.1670  -26.7850 C   0  0  0  0  0  0  0  0  0  0  0  0
    3.7570  -11.0270  -27.8880 C   0  0  0  0  0  3  0  0  0  0  0  0
    3.1140  -12.2620  -27.8140 C   0  0  0  0  0  3  0  0  0  0  0  0
    2.4260  -12.6240  -26.6580 C   0  0  0  0  0  3  0  0  0  0  0  0
    2.3840  -11.7640  -25.5470 C   0  0  0  0  0  0  0  0  0  0  0  0
    3.1250  -10.5460  -25.6070 C   0  0  0  0  0  3  0  0  0  0  0  0
    3.8940   -7.7280  -27.5710 C   0  0  0  0  0  0  0  0  0  0  0  0
    4.7220   -6.9790  -28.0960 O   0  0  0  0  0  0  0  0  0  0  0  0
    4.3570   -8.8980  -27.0200 N   0  0  0  0  0  0  0  0  0  0  0  0
    5.3480   -8.8250  -26.8240 H   0  0  0  0  0  0  0  0  0  0  0  0
    0.5060   -6.3730  -27.3230 C   0  0  0  0  0  0  0  0  0  0  0  0
    1.8050   -6.2390  -27.8730 C   0  0  0  0  0  3  0  0  0  0  0  0
    2.5350   -7.3020  -27.3940 C   0  0  0  0  0  0  0  0  0  0  0  0
    1.6140   -8.0680  -26.7280 N   0  0  0  0  0  0  0  0  0  0  0  0
    0.3890   -7.5210  -26.6430 N   0  0  0  0  0  0  0  0  0  0  0  0
    1.7730   -8.9770  -26.3060 H   0  0  0  0  0  0  0  0  0  0  0  0
   -1.9070   -5.8330  -26.7140 C   0  0  0  0  0  1  0  0  0  0  0  0
   -0.6090   -5.3640  -27.3610 C   0  0  0  0  0  3  0  0  0  0  0  0
   -0.1400   -4.0350  -26.7630 C   0  0  0  0  0  1  0  0  0  0  0  0
    1.4160  -12.0380  -24.3830 C   0  0  1  0  0  3  0  0  0  0  0  0
    2.1290  -12.8460  -23.2940 C   0  0  0  0  0  1  0  0  0  0  0  0
    0.9030  -10.8170  -23.7520 N   0  0  0  0  0  0  0  0  0  0  0  0
    1.5460  -10.0770  -23.5280 H   0  0  0  0  0  0  0  0  0  0  0  0
   -0.4360  -10.4970  -23.9830 C   0  0  0  0  0  0  0  0  0  0  0  0
   -0.8580  -10.5020  -25.2590 N   0  0  0  0  0  0  0  0  0  0  0  0
   -1.8530   -9.6670  -25.5520 C   0  0  0  0  0  3  0  0  0  0  0  0
   -2.3550   -8.7560  -24.7200 N   0  0  0  0  0  0  0  0  0  0  0  0
   -1.9090   -8.8000  -23.4450 C   0  0  0  0  0  0  0  0  0  0  0  0
   -1.9620   -7.7110  -22.5730 C   0  0  1  0  0  3  0  0  0  0  0  0
   -2.0340   -7.9090  -21.1880 C   0  0  0  0  0  3  0  0  0  0  0  0
   -1.5810   -9.1120  -20.6740 C   0  0  0  0  0  3  0  0  0  0  0  0
   -1.0100  -10.0240  -21.5590 C   0  0  0  0  0  2  0  0  0  0  0  0
   -1.1360   -9.8370  -22.9660 C   0  0  0  0  0  0  0  0  0  0  0  0
   -0.9500   -6.6840  -23.0080 C   0  0  0  0  0  0  0  0  0  0  0  0
    0.1080   -7.0480  -23.7980 N   0  0  0  0  0  0  0  0  0  0  0  0
   -1.1330   -5.4870  -22.8260 O   0  0  0  0  0  0  0  0  0  0  0  0
    0.6420   -6.2820  -24.1910 H   0  0  0  0  0  0  0  0  0  0  0  0
    0.2710   -7.9720  -24.1620 H   0  0  0  0  0  0  0  0  0  0  0  0
  1  6  1  0  0  0  0
  2  3  1  0  0  0  0
  2  1  2  0  0  0  0
  3  4  2  0  0  0  0
  4  5  1  0  0  0  0
  5 20  1  0  0  0  0
  6  5  2  0  0  0  0
  7 13  1  0  0  0  0
  7  9  1  0  0  0  0
  8  7  2  0  0  0  0
  9 10  1  0  0  0  0
  9  1  1  0  0  0  0
 11 15  2  0  0  0  0
 12 13  2  0  0  0  0
 12 11  1  0  0  0  0
 13 14  1  0  0  0  0
 14 15  1  0  0  0  0
 14 16  1  0  0  0  0
 18 11  1  0  0  0  0
 18 19  1  0  0  0  0
 18 17  1  0  0  0  0
 20 22  1  0  0  0  0
 20 21  1  1  0  0  0
 22 23  1  0  0  0  0
 24 22  1  0  0  0  0
 24 33  1  0  0  0  0
 25 24  2  0  0  0  0
 26 25  1  0  0  0  0
 26 27  2  0  0  0  0
 27 28  1  0  0  0  0
 28 33  2  0  0  0  0
 28 29  1  0  0  0  0
 29 34  1  1  0  0  0
 29 30  1  0  0  0  0
 30 31  2  0  0  0  0
 32 31  1  0  0  0  0
 33 32  1  0  0  0  0
 34 36  2  0  0  0  0
 35 34  1  0  0  0  0
 37 35  1  0  0  0  0
 38 35  1  0  0  0  0
M  END
>  <minimizedAffinity>
-8.55010319

$$$$

 OpenBabel10152419353D

 38 41  0  0  1  0  0  0  0  0999 V2000
    2.8940   -9.9080  -26.7270 C   0  0  0  0  0  0  0  0  0  0  0  0
    3.1110  -11.2040  -27.2050 C   0  0  0  0  0  3  0  0  0  0  0  0
    2.2010  -12.2270  -26.9430 C   0  0  0  0  0  3  0  0  0  0  0  0
    1.0160  -11.9510  -26.2620 C   0  0  0  0  0  3  0  0  0  0  0  0
    0.7310  -10.6490  -25.8160 C   0  0  0  0  0  0  0  0  0  0  0  0
    1.7150   -9.6360  -26.0120 C   0  0  0  0  0  3  0  0  0  0  0  0
    3.7190   -7.7940  -27.9230 C   0  0  0  0  0  0  0  0  0  0  0  0
    4.7220   -7.4390  -28.5470 O   0  0  0  0  0  0  0  0  0  0  0  0
    3.8160   -8.9360  -27.1640 N   0  0  0  0  0  0  0  0  0  0  0  0
    4.7860   -9.1370  -26.9580 H   0  0  0  0  0  0  0  0  0  0  0  0
    0.6940   -5.7920  -27.4580 C   0  0  0  0  0  0  0  0  0  0  0  0
    1.5480   -6.7970  -26.9410 C   0  0  0  0  0  3  0  0  0  0  0  0
    2.5620   -6.9470  -27.8580 C   0  0  0  0  0  0  0  0  0  0  0  0
    2.3430   -5.9450  -28.7680 N   0  0  0  0  0  0  0  0  0  0  0  0
    1.2090   -5.2510  -28.5700 N   0  0  0  0  0  0  0  0  0  0  0  0
    2.9370   -5.6960  -29.5500 H   0  0  0  0  0  0  0  0  0  0  0  0
   -1.5080   -6.5680  -26.4430 C   0  0  0  0  0  1  0  0  0  0  0  0
   -0.6670   -5.4020  -26.9500 C   0  0  0  0  0  3  0  0  0  0  0  0
   -0.5430   -4.3060  -25.8900 C   0  0  0  0  0  1  0  0  0  0  0  0
   -0.6760  -10.2900  -25.3070 C   0  0  1  0  0  3  0  0  0  0  0  0
   -1.6730  -10.3220  -26.4710 C   0  0  0  0  0  1  0  0  0  0  0  0
   -1.1780  -11.2120  -24.2820 N   0  0  0  0  0  0  0  0  0  0  0  0
   -1.1360  -12.2020  -24.4530 H   0  0  0  0  0  0  0  0  0  0  0  0
   -1.1720  -10.7580  -22.9620 C   0  0  0  0  0  0  0  0  0  0  0  0
   -1.6360  -11.5960  -22.0200 N   0  0  0  0  0  0  0  0  0  0  0  0
   -2.1890  -11.0290  -20.9500 C   0  0  0  0  0  3  0  0  0  0  0  0
   -2.4260   -9.7240  -20.8130 N   0  0  0  0  0  0  0  0  0  0  0  0
   -1.9280   -8.9210  -21.7800 C   0  0  0  0  0  0  0  0  0  0  0  0
   -2.4240   -7.6460  -22.0520 C   0  0  1  0  0  3  0  0  0  0  0  0
   -1.5970   -6.6630  -22.6120 C   0  0  0  0  0  3  0  0  0  0  0  0
   -0.4780   -7.0730  -23.3180 C   0  0  0  0  0  3  0  0  0  0  0  0
   -0.2850   -8.4420  -23.4920 C   0  0  0  0  0  2  0  0  0  0  0  0
   -1.0560   -9.3780  -22.7450 C   0  0  0  0  0  0  0  0  0  0  0  0
   -3.7760   -7.7730  -22.7030 C   0  0  0  0  0  0  0  0  0  0  0  0
   -4.9130   -7.7700  -21.9390 N   0  0  0  0  0  0  0  0  0  0  0  0
   -3.9110   -7.7030  -23.9180 O   0  0  0  0  0  0  0  0  0  0  0  0
   -5.7820   -7.6830  -22.4540 H   0  0  0  0  0  0  0  0  0  0  0  0
   -4.9430   -7.6550  -20.9400 H   0  0  0  0  0  0  0  0  0  0  0  0
  1  6  1  0  0  0  0
  2  3  1  0  0  0  0
  2  1  2  0  0  0  0
  3  4  2  0  0  0  0
  4  5  1  0  0  0  0
  5 20  1  0  0  0  0
  6  5  2  0  0  0  0
  7 13  1  0  0  0  0
  7  9  1  0  0  0  0
  8  7  2  0  0  0  0
  9 10  1  0  0  0  0
  9  1  1  0  0  0  0
 11 18  1  0  0  0  0
 11 12  1  0  0  0  0
 13 12  2  0  0  0  0
 14 15  1  0  0  0  0
 14 13  1  0  0  0  0
 15 11  2  0  0  0  0
 16 14  1  0  0  0  0
 18 17  1  0  0  0  0
 18 19  1  0  0  0  0
 20 21  1  6  0  0  0
 20 22  1  0  0  0  0
 22 24  1  0  0  0  0
 23 22  1  0  0  0  0
 24 33  2  0  0  0  0
 24 25  1  0  0  0  0
 25 26  2  0  0  0  0
 26 27  1  0  0  0  0
 28 27  2  0  0  0  0
 29 34  1  6  0  0  0
 29 28  1  0  0  0  0
 30 29  1  0  0  0  0
 31 30  2  0  0  0  0
 32 31  1  0  0  0  0
 32 33  1  0  0  0  0
 33 28  1  0  0  0  0
 34 35  1  0  0  0  0
 35 38  1  0  0  0  0
 36 34  2  0  0  0  0
 37 35  1  0  0  0  0
M  END
>  <minimizedAffinity>
-8.38927174

$$$$

 OpenBabel10152419353D

 38 41  0  0  1  0  0  0  0  0999 V2000
    3.5550  -11.2820  -26.4440 C   0  0  0  0  0  0  0  0  0  0  0  0
    4.2490  -11.6240  -27.6090 C   0  0  0  0  0  3  0  0  0  0  0  0
    4.3500  -10.7300  -28.6740 C   0  0  0  0  0  3  0  0  0  0  0  0
    3.8230   -9.4440  -28.5580 C   0  0  0  0  0  3  0  0  0  0  0  0
    3.1700   -9.0380  -27.3820 C   0  0  0  0  0  0  0  0  0  0  0  0
    2.9960   -9.9960  -26.3400 C   0  0  0  0  0  3  0  0  0  0  0  0
    3.0020  -12.3500  -24.1790 C   0  0  0  0  0  0  0  0  0  0  0  0
    3.6110  -12.9430  -23.2840 O   0  0  0  0  0  0  0  0  0  0  0  0
    3.6330  -12.2160  -25.3920 N   0  0  0  0  0  0  0  0  0  0  0  0
    4.3630  -12.9110  -25.4860 H   0  0  0  0  0  0  0  0  0  0  0  0
   -0.3980  -11.2180  -23.4510 C   0  0  0  0  0  0  0  0  0  0  0  0
    0.9710  -11.1870  -23.0870 C   0  0  0  0  0  3  0  0  0  0  0  0
    1.6280  -11.9770  -24.0030 C   0  0  0  0  0  0  0  0  0  0  0  0
    0.6630  -12.3000  -24.9200 N   0  0  0  0  0  0  0  0  0  0  0  0
   -0.5740  -11.8820  -24.6000 N   0  0  0  0  0  0  0  0  0  0  0  0
    0.7970  -12.8120  -25.7850 H   0  0  0  0  0  0  0  0  0  0  0  0
   -2.0070  -11.6070  -21.5160 C   0  0  0  0  0  1  0  0  0  0  0  0
   -1.5640  -10.6970  -22.6560 C   0  0  0  0  0  3  0  0  0  0  0  0
   -1.2720   -9.2810  -22.1550 C   0  0  0  0  0  1  0  0  0  0  0  0
    2.8270   -7.5560  -27.1520 C   0  0  1  0  0  3  0  0  0  0  0  0
    4.1090   -6.7650  -26.8670 C   0  0  0  0  0  1  0  0  0  0  0  0
    2.1750   -6.9230  -28.3030 N   0  0  0  0  0  0  0  0  0  0  0  0
    2.3150   -7.3140  -29.2190 H   0  0  0  0  0  0  0  0  0  0  0  0
    1.0080   -6.2000  -28.0530 C   0  0  0  0  0  0  0  0  0  0  0  0
    1.0660   -4.8660  -28.2040 N   0  0  0  0  0  0  0  0  0  0  0  0
    0.2450   -4.1510  -27.4380 C   0  0  0  0  0  3  0  0  0  0  0  0
   -0.5140   -4.6470  -26.4610 N   0  0  0  0  0  0  0  0  0  0  0  0
   -0.5490   -5.9940  -26.3570 C   0  0  0  0  0  0  0  0  0  0  0  0
   -0.9010   -6.6670  -25.1860 C   0  0  1  0  0  3  0  0  0  0  0  0
   -1.4610   -7.9500  -25.2410 C   0  0  0  0  0  3  0  0  0  0  0  0
   -1.2280   -8.7190  -26.3680 C   0  0  0  0  0  3  0  0  0  0  0  0
   -0.3860   -8.1970  -27.3480 C   0  0  0  0  0  2  0  0  0  0  0  0
   -0.0040   -6.8250  -27.3130 C   0  0  0  0  0  0  0  0  0  0  0  0
    0.2070   -6.5080  -24.1770 C   0  0  0  0  0  0  0  0  0  0  0  0
    1.3490   -7.2570  -24.2840 N   0  0  0  0  0  0  0  0  0  0  0  0
    0.2000   -5.6000  -23.3560 O   0  0  0  0  0  0  0  0  0  0  0  0
    2.1120   -6.9730  -23.6800 H   0  0  0  0  0  0  0  0  0  0  0  0
    1.5490   -7.9120  -25.0200 H   0  0  0  0  0  0  0  0  0  0  0  0
  1  6  1  0  0  0  0
  1  9  1  0  0  0  0
  2  1  2  0  0  0  0
  3  4  2  0  0  0  0
  3  2  1  0  0  0  0
  4  5  1  0  0  0  0
  5 20  1  0  0  0  0
  5  6  2  0  0  0  0
  7 13  1  0  0  0  0
  7  8  2  0  0  0  0
  9  7  1  0  0  0  0
 10  9  1  0  0  0  0
 11 12  1  0  0  0  0
 11 18  1  0  0  0  0
 13 12  2  0  0  0  0
 14 15  1  0  0  0  0
 14 13  1  0  0  0  0
 15 11  2  0  0  0  0
 16 14  1  0  0  0  0
 18 19  1  0  0  0  0
 18 17  1  0  0  0  0
 20 21  1  6  0  0  0
 22 24  1  0  0  0  0
 22 20  1  0  0  0  0
 23 22  1  0  0  0  0
 24 33  1  0  0  0  0
 25 24  2  0  0  0  0
 25 26  1  0  0  0  0
 26 27  2  0  0  0  0
 27 28  1  0  0  0  0
 28 29  1  0  0  0  0
 29 34  1  1  0  0  0
 30 29  1  0  0  0  0
 31 30  2  0  0  0  0
 32 33  1  0  0  0  0
 32 31  1  0  0  0  0
 33 28  2  0  0  0  0
 34 36  2  0  0  0  0
 35 34  1  0  0  0  0
 35 37  1  0  0  0  0
 38 35  1  0  0  0  0
M  END
>  <minimizedAffinity>
-7.55336046

$$$$

 OpenBabel10152419353D

 38 41  0  0  1  0  0  0  0  0999 V2000
   -1.3680   -6.8540  -22.9770 C   0  0  0  0  0  0  0  0  0  0  0  0
   -0.9020   -5.5390  -22.8790 C   0  0  0  0  0  3  0  0  0  0  0  0
   -0.1320   -4.9730  -23.8940 C   0  0  0  0  0  3  0  0  0  0  0  0
    0.1180   -5.6900  -25.0640 C   0  0  0  0  0  3  0  0  0  0  0  0
   -0.3820   -6.9920  -25.2290 C   0  0  0  0  0  0  0  0  0  0  0  0
   -1.0880   -7.5880  -24.1430 C   0  0  0  0  0  3  0  0  0  0  0  0
   -2.8030   -8.4710  -21.5970 C   0  0  0  0  0  0  0  0  0  0  0  0
   -3.8810   -8.4400  -20.9980 O   0  0  0  0  0  0  0  0  0  0  0  0
   -2.2400   -7.2690  -21.9510 N   0  0  0  0  0  0  0  0  0  0  0  0
   -2.6170   -6.5240  -21.3780 H   0  0  0  0  0  0  0  0  0  0  0  0
   -0.9630  -11.5430  -22.3400 C   0  0  0  0  0  0  0  0  0  0  0  0
   -1.5020  -10.3280  -22.8330 C   0  0  0  0  0  3  0  0  0  0  0  0
   -2.0930   -9.7070  -21.7570 C   0  0  0  0  0  0  0  0  0  0  0  0
   -1.7490  -10.4920  -20.6870 N   0  0  0  0  0  0  0  0  0  0  0  0
   -1.0930  -11.6200  -21.0100 N   0  0  0  0  0  0  0  0  0  0  0  0
   -1.9440  -10.3030  -19.7100 H   0  0  0  0  0  0  0  0  0  0  0  0
   -0.5290  -12.5130  -24.6540 C   0  0  0  0  0  1  0  0  0  0  0  0
   -0.4030  -12.6840  -23.1440 C   0  0  0  0  0  3  0  0  0  0  0  0
    1.0460  -12.9580  -22.7360 C   0  0  0  0  0  1  0  0  0  0  0  0
   -0.3360   -7.6770  -26.6060 C   0  0  1  0  0  3  0  0  0  0  0  0
    0.0860   -6.6640  -27.6760 C   0  0  0  0  0  1  0  0  0  0  0  0
    0.6130   -8.7950  -26.6700 N   0  0  0  0  0  0  0  0  0  0  0  0
    0.4030   -9.5800  -27.2610 H   0  0  0  0  0  0  0  0  0  0  0  0
    1.9480   -8.5100  -26.3800 C   0  0  0  0  0  0  0  0  0  0  0  0
    2.4360   -7.3350  -26.8130 N   0  0  0  0  0  0  0  0  0  0  0  0
    3.7380   -7.3050  -27.0900 C   0  0  0  0  0  3  0  0  0  0  0  0
    4.5420   -8.3670  -27.0940 N   0  0  0  0  0  0  0  0  0  0  0  0
    4.0100   -9.5220  -26.6370 C   0  0  0  0  0  0  0  0  0  0  0  0
    4.5130  -10.7830  -26.9630 C   0  0  1  0  0  3  0  0  0  0  0  0
    4.3390  -11.8670  -26.0920 C   0  0  0  0  0  2  0  0  0  0  0  0
    3.2990  -11.8150  -25.1800 C   0  0  0  0  0  3  0  0  0  0  0  0
    2.4400  -10.7190  -25.2360 C   0  0  0  0  0  3  0  0  0  0  0  0
    2.7810   -9.5760  -26.0150 C   0  0  0  0  0  0  0  0  0  0  0  0
    4.1950  -11.0800  -28.4050 C   0  0  0  0  0  0  0  0  0  0  0  0
    4.6970  -10.2840  -29.4000 N   0  0  0  0  0  0  0  0  0  0  0  0
    3.6440  -12.1210  -28.7380 O   0  0  0  0  0  0  0  0  0  0  0  0
    4.5880  -10.6440  -30.3410 H   0  0  0  0  0  0  0  0  0  0  0  0
    5.3120   -9.5000  -29.2640 H   0  0  0  0  0  0  0  0  0  0  0  0
  1  2  1  0  0  0  0
  1  9  1  0  0  0  0
  3  2  2  0  0  0  0
  4  3  1  0  0  0  0
  5  4  2  0  0  0  0
  5  6  1  0  0  0  0
  6  1  2  0  0  0  0
  7  8  2  0  0  0  0
  9  7  1  0  0  0  0
  9 10  1  0  0  0  0
 11 15  2  0  0  0  0
 12 11  1  0  0  0  0
 12 13  2  0  0  0  0
 13  7  1  0  0  0  0
 13 14  1  0  0  0  0
 14 16  1  0  0  0  0
 15 14  1  0  0  0  0
 17 18  1  0  0  0  0
 18 19  1  0  0  0  0
 18 11  1  0  0  0  0
 20 21  1  6  0  0  0
 20  5  1  0  0  0  0
 22 20  1  0  0  0  0
 22 24  1  0  0  0  0
 23 22  1  0  0  0  0
 24 33  1  0  0  0  0
 25 24  2  0  0  0  0
 26 25  1  0  0  0  0
 27 26  2  0  0  0  0
 27 28  1  0  0  0  0
 28 33  2  0  0  0  0
 29 34  1  6  0  0  0
 29 28  1  0  0  0  0
 29 30  1  0  0  0  0
 30 31  1  0  0  0  0
 32 31  2  0  0  0  0
 33 32  1  0  0  0  0
 35 38  1  0  0  0  0
 35 34  1  0  0  0  0
 36 34  2  0  0  0  0
 37 35  1  0  0  0  0
M  END
>  <minimizedAffinity>
-7.48804617

$$$$

 OpenBabel10152419353D

 38 41  0  0  1  0  0  0  0  0999 V2000
    0.9810  -12.0050  -24.6420 C   0  0  0  0  0  0  0  0  0  0  0  0
    0.9400  -12.7500  -25.8250 C   0  0  0  0  0  3  0  0  0  0  0  0
    1.5450  -12.2790  -26.9900 C   0  0  0  0  0  3  0  0  0  0  0  0
    2.2690  -11.0890  -26.9690 C   0  0  0  0  0  3  0  0  0  0  0  0
    2.3860  -10.3390  -25.7860 C   0  0  0  0  0  0  0  0  0  0  0  0
    1.6840  -10.7880  -24.6290 C   0  0  0  0  0  3  0  0  0  0  0  0
   -0.0610  -12.2000  -22.3060 C   0  0  0  0  0  0  0  0  0  0  0  0
    0.0220  -12.9600  -21.3380 O   0  0  0  0  0  0  0  0  0  0  0  0
    0.4480  -12.6420  -23.5040 N   0  0  0  0  0  0  0  0  0  0  0  0
    0.5140  -13.6520  -23.5040 H   0  0  0  0  0  0  0  0  0  0  0  0
   -1.9790   -9.0880  -22.4230 C   0  0  0  0  0  0  0  0  0  0  0  0
   -1.3400  -10.1220  -23.1520 C   0  0  0  0  0  3  0  0  0  0  0  0
   -0.8150  -10.9830  -22.2160 C   0  0  0  0  0  0  0  0  0  0  0  0
   -1.2880  -10.5070  -21.0210 N   0  0  0  0  0  0  0  0  0  0  0  0
   -1.9680   -9.3500  -21.1100 N   0  0  0  0  0  0  0  0  0  0  0  0
   -1.1690  -10.9340  -20.1090 H   0  0  0  0  0  0  0  0  0  0  0  0
   -4.0450   -7.7010  -22.9640 C   0  0  0  0  0  1  0  0  0  0  0  0
   -2.5230   -7.7940  -22.9630 C   0  0  0  0  0  3  0  0  0  0  0  0
   -1.8950   -6.6080  -22.2270 C   0  0  0  0  0  1  0  0  0  0  0  0
    3.3930   -9.1790  -25.6940 C   0  0  1  0  0  3  0  0  0  0  0  0
    4.3620   -9.2370  -26.8790 C   0  0  0  0  0  1  0  0  0  0  0  0
    2.7600   -7.8550  -25.7160 N   0  0  0  0  0  0  0  0  0  0  0  0
    3.1250   -7.1300  -25.1240 H   0  0  0  0  0  0  0  0  0  0  0  0
    2.0880   -7.4930  -26.8850 C   0  0  0  0  0  0  0  0  0  0  0  0
    2.8100   -6.9030  -27.8530 N   0  0  0  0  0  0  0  0  0  0  0  0
    2.1540   -6.0510  -28.6380 C   0  0  0  0  0  3  0  0  0  0  0  0
    0.8960   -5.6540  -28.4520 N   0  0  0  0  0  0  0  0  0  0  0  0
    0.2080   -6.2870  -27.4760 C   0  0  0  0  0  0  0  0  0  0  0  0
   -0.9140   -5.7420  -26.8490 C   0  0  1  0  0  3  0  0  0  0  0  0
   -1.8960   -6.5750  -26.2950 C   0  0  0  0  0  2  0  0  0  0  0  0
   -1.5410   -7.8680  -25.9500 C   0  0  0  0  0  3  0  0  0  0  0  0
   -0.2060   -8.2380  -26.1030 C   0  0  0  0  0  3  0  0  0  0  0  0
    0.6900   -7.4100  -26.8380 C   0  0  0  0  0  0  0  0  0  0  0  0
   -0.4770   -4.6100  -25.9570 C   0  0  0  0  0  0  0  0  0  0  0  0
   -0.2140   -3.3750  -26.4880 N   0  0  0  0  0  0  0  0  0  0  0  0
   -0.5170   -4.7030  -24.7370 O   0  0  0  0  0  0  0  0  0  0  0  0
   -0.0970   -2.6280  -25.8140 H   0  0  0  0  0  0  0  0  0  0  0  0
   -0.3160   -3.1250  -27.4570 H   0  0  0  0  0  0  0  0  0  0  0  0
  1  6  1  0  0  0  0
  1  9  1  0  0  0  0
  2  1  2  0  0  0  0
  3  4  2  0  0  0  0
  3  2  1  0  0  0  0
  4  5  1  0  0  0  0
  5 20  1  0  0  0  0
  5  6  2  0  0  0  0
  7 13  1  0  0  0  0
  7  8  2  0  0  0  0
  9 10  1  0  0  0  0
  9  7  1  0  0  0  0
 11 15  2  0  0  0  0
 12 11  1  0  0  0  0
 12 13  2  0  0  0  0
 13 14  1  0  0  0  0
 14 16  1  0  0  0  0
 15 14  1  0  0  0  0
 17 18  1  0  0  0  0
 18 11  1  0  0  0  0
 18 19  1  0  0  0  0
 20 21  1  6  0  0  0
 22 20  1  0  0  0  0
 22 23  1  0  0  0  0
 24 33  1  0  0  0  0
 24 22  1  0  0  0  0
 25 24  2  0  0  0  0
 26 27  2  0  0  0  0
 26 25  1  0  0  0  0
 27 28  1  0  0  0  0
 28 29  1  0  0  0  0
 28 33  2  0  0  0  0
 29 30  1  0  0  0  0
 29 34  1  1  0  0  0
 30 31  1  0  0  0  0
 32 31  2  0  0  0  0
 33 32  1  0  0  0  0
 34 36  2  0  0  0  0
 35 34  1  0  0  0  0
 35 37  1  0  0  0  0
 38 35  1  0  0  0  0
M  END
>  <minimizedAffinity>
-7.44651842

$$$$

 OpenBabel10152419353D

 38 41  0  0  1  0  0  0  0  0999 V2000
   -0.5140   -5.4350  -24.0570 C   0  0  0  0  0  0  0  0  0  0  0  0
   -0.9380   -4.1030  -24.0980 C   0  0  0  0  0  3  0  0  0  0  0  0
   -0.8280   -3.3500  -25.2660 C   0  0  0  0  0  3  0  0  0  0  0  0
   -0.3650   -3.9440  -26.4390 C   0  0  0  0  0  3  0  0  0  0  0  0
    0.0150   -5.2970  -26.4580 C   0  0  0  0  0  0  0  0  0  0  0  0
   -0.0160   -6.0250  -25.2320 C   0  0  0  0  0  3  0  0  0  0  0  0
   -1.5050   -7.2620  -22.5530 C   0  0  0  0  0  0  0  0  0  0  0  0
   -1.9880   -7.3400  -21.4210 O   0  0  0  0  0  0  0  0  0  0  0  0
   -0.7930   -6.1270  -22.8620 N   0  0  0  0  0  0  0  0  0  0  0  0
   -0.4820   -5.6680  -22.0150 H   0  0  0  0  0  0  0  0  0  0  0  0
   -1.4320  -10.3150  -24.5650 C   0  0  0  0  0  0  0  0  0  0  0  0
   -1.1130   -9.6930  -23.3330 C   0  0  0  0  0  3  0  0  0  0  0  0
   -1.5400   -8.3890  -23.4400 C   0  0  0  0  0  0  0  0  0  0  0  0
   -2.2060   -8.3520  -24.6380 N   0  0  0  0  0  0  0  0  0  0  0  0
   -2.1340   -9.4890  -25.3520 N   0  0  0  0  0  0  0  0  0  0  0  0
   -2.7250   -7.5690  -25.0180 H   0  0  0  0  0  0  0  0  0  0  0  0
   -0.1770  -11.6510  -26.3330 C   0  0  0  0  0  1  0  0  0  0  0  0
   -0.9900  -11.6710  -25.0430 C   0  0  0  0  0  3  0  0  0  0  0  0
   -0.2440  -12.4080  -23.9290 C   0  0  0  0  0  1  0  0  0  0  0  0
    0.2700   -6.0170  -27.7940 C   0  0  1  0  0  3  0  0  0  0  0  0
    1.2270   -5.1870  -28.6560 C   0  0  0  0  0  1  0  0  0  0  0  0
    0.8720   -7.3450  -27.6340 N   0  0  0  0  0  0  0  0  0  0  0  0
    0.4800   -8.1220  -28.1370 H   0  0  0  0  0  0  0  0  0  0  0  0
    2.2180   -7.3910  -27.2690 C   0  0  0  0  0  0  0  0  0  0  0  0
    3.0870   -6.7030  -28.0290 N   0  0  0  0  0  0  0  0  0  0  0  0
    4.3250   -7.1870  -28.0920 C   0  0  0  0  0  3  0  0  0  0  0  0
    4.7180   -8.3500  -27.5740 N   0  0  0  0  0  0  0  0  0  0  0  0
    3.8140   -8.9980  -26.8060 C   0  0  0  0  0  0  0  0  0  0  0  0
    3.8600  -10.3700  -26.5550 C   0  0  1  0  0  3  0  0  0  0  0  0
    3.3090  -10.9000  -25.3800 C   0  0  0  0  0  2  0  0  0  0  0  0
    2.3330  -10.1670  -24.7260 C   0  0  0  0  0  3  0  0  0  0  0  0
    1.9020   -8.9830  -25.3200 C   0  0  0  0  0  3  0  0  0  0  0  0
    2.6280   -8.4170  -26.4070 C   0  0  0  0  0  0  0  0  0  0  0  0
    3.4880  -11.1130  -27.8120 C   0  0  0  0  0  0  0  0  0  0  0  0
    3.9790  -10.7070  -29.0230 N   0  0  0  0  0  0  0  0  0  0  0  0
    2.8960  -12.1840  -27.7710 O   0  0  0  0  0  0  0  0  0  0  0  0
    3.8290  -11.3520  -29.7910 H   0  0  0  0  0  0  0  0  0  0  0  0
    4.6200   -9.9450  -29.1670 H   0  0  0  0  0  0  0  0  0  0  0  0
  1  9  1  0  0  0  0
  2  1  1  0  0  0  0
  3  2  2  0  0  0  0
  4  3  1  0  0  0  0
  5  4  2  0  0  0  0
  5  6  1  0  0  0  0
  6  1  2  0  0  0  0
  7  8  2  0  0  0  0
  9  7  1  0  0  0  0
  9 10  1  0  0  0  0
 11 12  1  0  0  0  0
 13 12  2  0  0  0  0
 13  7  1  0  0  0  0
 14 13  1  0  0  0  0
 15 14  1  0  0  0  0
 15 11  2  0  0  0  0
 16 14  1  0  0  0  0
 17 18  1  0  0  0  0
 18 11  1  0  0  0  0
 18 19  1  0  0  0  0
 20 21  1  6  0  0  0
 20 22  1  0  0  0  0
 20  5  1  0  0  0  0
 22 24  1  0  0  0  0
 23 22  1  0  0  0  0
 24 33  1  0  0  0  0
 25 24  2  0  0  0  0
 26 25  1  0  0  0  0
 26 27  2  0  0  0  0
 27 28  1  0  0  0  0
 28 29  1  0  0  0  0
 28 33  2  0  0  0  0
 29 34  1  6  0  0  0
 29 30  1  0  0  0  0
 30 31  1  0  0  0  0
 32 31  2  0  0  0  0
 33 32  1  0  0  0  0
 34 36  2  0  0  0  0
 35 34  1  0  0  0  0
 37 35  1  0  0  0  0
 38 35  1  0  0  0  0
M  END
>  <minimizedAffinity>
-7.24621725

$$$$

 OpenBabel10152419353D

 38 41  0  0  1  0  0  0  0  0999 V2000
    0.0820   -6.2910  -24.9910 C   0  0  0  0  0  0  0  0  0  0  0  0
   -0.9470   -6.4170  -25.9310 C   0  0  0  0  0  3  0  0  0  0  0  0
   -0.7070   -6.9710  -27.1870 C   0  0  0  0  0  3  0  0  0  0  0  0
    0.5520   -7.4820  -27.4970 C   0  0  0  0  0  3  0  0  0  0  0  0
    1.5990   -7.4290  -26.5600 C   0  0  0  0  0  0  0  0  0  0  0  0
    1.3610   -6.7760  -25.3160 C   0  0  0  0  0  3  0  0  0  0  0  0
   -1.1500   -6.3180  -22.7420 C   0  0  0  0  0  0  0  0  0  0  0  0
   -1.6760   -5.4960  -21.9870 O   0  0  0  0  0  0  0  0  0  0  0  0
   -0.3100   -5.8360  -23.7170 N   0  0  0  0  0  0  0  0  0  0  0  0
    0.0210   -4.9120  -23.4680 H   0  0  0  0  0  0  0  0  0  0  0  0
   -1.6460   -9.8200  -21.8120 C   0  0  0  0  0  0  0  0  0  0  0  0
   -1.8650   -8.4580  -21.4860 C   0  0  0  0  0  3  0  0  0  0  0  0
   -1.2790   -7.7250  -22.4920 C   0  0  0  0  0  0  0  0  0  0  0  0
   -0.8890   -8.6660  -23.4090 N   0  0  0  0  0  0  0  0  0  0  0  0
   -1.0700   -9.9380  -23.0150 N   0  0  0  0  0  0  0  0  0  0  0  0
   -0.4860   -8.4900  -24.3230 H   0  0  0  0  0  0  0  0  0  0  0  0
   -2.0170  -12.3360  -21.6950 C   0  0  0  0  0  1  0  0  0  0  0  0
   -1.8970  -11.0180  -20.9380 C   0  0  0  0  0  3  0  0  0  0  0  0
   -0.8340  -11.1040  -19.8400 C   0  0  0  0  0  1  0  0  0  0  0  0
    2.8970   -8.2210  -26.7960 C   0  0  1  0  0  3  0  0  0  0  0  0
    4.0860   -7.2580  -26.8780 C   0  0  0  0  0  1  0  0  0  0  0  0
    3.1940   -9.1850  -25.7300 N   0  0  0  0  0  0  0  0  0  0  0  0
    2.9600   -8.9500  -24.7820 H   0  0  0  0  0  0  0  0  0  0  0  0
    3.2590  -10.5320  -26.0930 C   0  0  0  0  0  0  0  0  0  0  0  0
    3.5850  -10.8120  -27.3660 N   0  0  0  0  0  0  0  0  0  0  0  0
    3.0840  -11.9390  -27.8660 C   0  0  0  0  0  3  0  0  0  0  0  0
    2.1970  -12.7200  -27.2510 N   0  0  0  0  0  0  0  0  0  0  0  0
    1.9120  -12.4060  -25.9680 C   0  0  0  0  0  0  0  0  0  0  0  0
    0.7380  -12.7980  -25.3230 C   0  0  1  0  0  3  0  0  0  0  0  0
    0.7090  -12.9590  -23.9310 C   0  0  0  0  0  2  0  0  0  0  0  0
    1.6570  -12.2930  -23.1740 C   0  0  0  0  0  3  0  0  0  0  0  0
    2.5360  -11.4390  -23.8380 C   0  0  0  0  0  3  0  0  0  0  0  0
    2.6290  -11.4650  -25.2590 C   0  0  0  0  0  0  0  0  0  0  0  0
   -0.4180  -12.0140  -25.8870 C   0  0  0  0  0  0  0  0  0  0  0  0
   -1.5610  -11.8450  -25.1530 N   0  0  0  0  0  0  0  0  0  0  0  0
   -0.3080  -11.3650  -26.9200 O   0  0  0  0  0  0  0  0  0  0  0  0
   -2.2180  -11.1670  -25.5210 H   0  0  0  0  0  0  0  0  0  0  0  0
   -1.7060  -12.1810  -24.2150 H   0  0  0  0  0  0  0  0  0  0  0  0
  1  9  1  0  0  0  0
  2  1  2  0  0  0  0
  3  2  1  0  0  0  0
  4  3  2  0  0  0  0
  4  5  1  0  0  0  0
  5  6  2  0  0  0  0
  6  1  1  0  0  0  0
  7 13  1  0  0  0  0
  7  8  2  0  0  0  0
  9 10  1  0  0  0  0
  9  7  1  0  0  0  0
 11 12  1  0  0  0  0
 11 18  1  0  0  0  0
 13 12  2  0  0  0  0
 14 15  1  0  0  0  0
 14 13  1  0  0  0  0
 15 11  2  0  0  0  0
 16 14  1  0  0  0  0
 17 18  1  0  0  0  0
 18 19  1  0  0  0  0
 20 21  1  1  0  0  0
 20  5  1  0  0  0  0
 20 22  1  0  0  0  0
 22 23  1  0  0  0  0
 24 22  1  0  0  0  0
 24 33  1  0  0  0  0
 25 24  2  0  0  0  0
 26 25  1  0  0  0  0
 26 27  2  0  0  0  0
 27 28  1  0  0  0  0
 28 29  1  0  0  0  0
 28 33  2  0  0  0  0
 29 34  1  1  0  0  0
 29 30  1  0  0  0  0
 30 31  1  0  0  0  0
 32 31  2  0  0  0  0
 33 32  1  0  0  0  0
 34 35  1  0  0  0  0
 35 38  1  0  0  0  0
 36 34  2  0  0  0  0
 37 35  1  0  0  0  0
M  END
>  <minimizedAffinity>
-7.0089488

$$$$

 OpenBabel10152419353D

 38 41  0  0  1  0  0  0  0  0999 V2000
   -1.3090   -8.1110  -22.6350 C   0  0  0  0  0  0  0  0  0  0  0  0
   -1.1260   -6.8160  -22.1370 C   0  0  0  0  0  3  0  0  0  0  0  0
   -0.7670   -5.7670  -22.9810 C   0  0  0  0  0  3  0  0  0  0  0  0
   -0.6620   -5.9800  -24.3550 C   0  0  0  0  0  3  0  0  0  0  0  0
   -0.8960   -7.2520  -24.9040 C   0  0  0  0  0  0  0  0  0  0  0  0
   -1.1710   -8.3330  -24.0160 C   0  0  0  0  0  3  0  0  0  0  0  0
   -1.9240  -10.4240  -21.7130 C   0  0  0  0  0  0  0  0  0  0  0  0
   -2.8140  -10.9130  -21.0130 O   0  0  0  0  0  0  0  0  0  0  0  0
   -1.7940   -9.0560  -21.7090 N   0  0  0  0  0  0  0  0  0  0  0  0
   -2.2240   -8.6660  -20.8800 H   0  0  0  0  0  0  0  0  0  0  0  0
    0.4950  -12.3720  -23.6430 C   0  0  0  0  0  0  0  0  0  0  0  0
   -0.3920  -11.2670  -23.6130 C   0  0  0  0  0  3  0  0  0  0  0  0
   -0.9590  -11.2670  -22.3600 C   0  0  0  0  0  0  0  0  0  0  0  0
   -0.2850  -12.2510  -21.6860 N   0  0  0  0  0  0  0  0  0  0  0  0
    0.5770  -12.9540  -22.4400 N   0  0  0  0  0  0  0  0  0  0  0  0
   -0.3800  -12.4880  -20.7040 H   0  0  0  0  0  0  0  0  0  0  0  0
    0.8330  -12.2780  -26.1660 C   0  0  0  0  0  1  0  0  0  0  0  0
    1.2010  -12.9420  -24.8430 C   0  0  0  0  0  3  0  0  0  0  0  0
    2.7150  -12.9330  -24.6210 C   0  0  0  0  0  1  0  0  0  0  0  0
   -1.0410   -7.4300  -26.4260 C   0  0  1  0  0  3  0  0  0  0  0  0
   -1.2600   -6.0660  -27.0890 C   0  0  0  0  0  1  0  0  0  0  0  0
    0.1380   -8.0340  -27.0570 N   0  0  0  0  0  0  0  0  0  0  0  0
    0.0080   -8.6840  -27.8120 H   0  0  0  0  0  0  0  0  0  0  0  0
    1.3320   -7.3140  -26.9890 C   0  0  0  0  0  0  0  0  0  0  0  0
    1.3230   -6.0590  -27.4680 N   0  0  0  0  0  0  0  0  0  0  0  0
    2.4760   -5.6080  -27.9600 C   0  0  0  0  0  3  0  0  0  0  0  0
    3.5740   -6.3440  -28.1260 N   0  0  0  0  0  0  0  0  0  0  0  0
    3.5390   -7.5950  -27.6160 C   0  0  0  0  0  0  0  0  0  0  0  0
    4.3690   -8.6280  -28.0540 C   0  0  1  0  0  3  0  0  0  0  0  0
    4.7120   -9.6810  -27.1950 C   0  0  0  0  0  2  0  0  0  0  0  0
    3.8820   -9.9460  -26.1200 C   0  0  0  0  0  3  0  0  0  0  0  0
    2.7120   -9.1990  -26.0020 C   0  0  0  0  0  3  0  0  0  0  0  0
    2.5200   -8.0330  -26.7970 C   0  0  0  0  0  0  0  0  0  0  0  0
    3.9310   -9.0590  -29.4300 C   0  0  0  0  0  0  0  0  0  0  0  0
    3.7130   -8.1260  -30.4080 N   0  0  0  0  0  0  0  0  0  0  0  0
    3.9330  -10.2380  -29.7620 O   0  0  0  0  0  0  0  0  0  0  0  0
    3.5930   -8.4970  -31.3440 H   0  0  0  0  0  0  0  0  0  0  0  0
    3.8500   -7.1350  -30.3080 H   0  0  0  0  0  0  0  0  0  0  0  0
  1  2  1  0  0  0  0
  1  9  1  0  0  0  0
  3  2  2  0  0  0  0
  4  3  1  0  0  0  0
  5  4  2  0  0  0  0
  5  6  1  0  0  0  0
  6  1  2  0  0  0  0
  7  9  1  0  0  0  0
  7  8  2  0  0  0  0
  9 10  1  0  0  0  0
 11 12  1  0  0  0  0
 11 15  2  0  0  0  0
 12 13  2  0  0  0  0
 13  7  1  0  0  0  0
 13 14  1  0  0  0  0
 14 16  1  0  0  0  0
 15 14  1  0  0  0  0
 17 18  1  0  0  0  0
 18 19  1  0  0  0  0
 18 11  1  0  0  0  0
 20 21  1  6  0  0  0
 20  5  1  0  0  0  0
 22 24  1  0  0  0  0
 22 20  1  0  0  0  0
 23 22  1  0  0  0  0
 24 33  1  0  0  0  0
 25 24  2  0  0  0  0
 26 25  1  0  0  0  0
 27 26  2  0  0  0  0
 27 28  1  0  0  0  0
 28 33  2  0  0  0  0
 29 34  1  6  0  0  0
 29 28  1  0  0  0  0
 29 30  1  0  0  0  0
 30 31  1  0  0  0  0
 31 32  2  0  0  0  0
 33 32  1  0  0  0  0
 35 38  1  0  0  0  0
 35 34  1  0  0  0  0
 36 34  2  0  0  0  0
 37 35  1  0  0  0  0
M  END
>  <minimizedAffinity>
-6.30682659

$$$$

 OpenBabel10152419353D

 38 41  0  0  1  0  0  0  0  0999 V2000
   -2.1890   -7.4480  -22.5860 C   0  0  0  0  0  0  0  0  0  0  0  0
   -3.3990   -7.9740  -23.0510 C   0  0  0  0  0  3  0  0  0  0  0  0
   -3.7380   -7.9080  -24.4010 C   0  0  0  0  0  3  0  0  0  0  0  0
   -2.8340   -7.3850  -25.3240 C   0  0  0  0  0  3  0  0  0  0  0  0
   -1.5820   -6.9000  -24.9090 C   0  0  0  0  0  0  0  0  0  0  0  0
   -1.2910   -6.8900  -23.5130 C   0  0  0  0  0  3  0  0  0  0  0  0
   -1.9560   -8.7960  -20.4160 C   0  0  0  0  0  0  0  0  0  0  0  0
   -2.1360   -8.6090  -19.2100 O   0  0  0  0  0  0  0  0  0  0  0  0
   -1.9020   -7.6880  -21.2280 N   0  0  0  0  0  0  0  0  0  0  0  0
   -1.6820   -6.8650  -20.6810 H   0  0  0  0  0  0  0  0  0  0  0  0
   -0.9040  -11.9820  -21.8710 C   0  0  0  0  0  0  0  0  0  0  0  0
   -0.6930  -10.5830  -21.7870 C   0  0  0  0  0  3  0  0  0  0  0  0
   -1.6410  -10.1050  -20.9130 C   0  0  0  0  0  0  0  0  0  0  0  0
   -2.2460  -11.2330  -20.4240 N   0  0  0  0  0  0  0  0  0  0  0  0
   -1.8440  -12.3780  -21.0030 N   0  0  0  0  0  0  0  0  0  0  0  0
   -2.9480  -11.2760  -19.6940 H   0  0  0  0  0  0  0  0  0  0  0  0
   -0.6660  -12.7040  -24.3010 C   0  0  0  0  0  1  0  0  0  0  0  0
   -0.2780  -12.9410  -22.8460 C   0  0  0  0  0  3  0  0  0  0  0  0
    1.2430  -12.9560  -22.6720 C   0  0  0  0  0  1  0  0  0  0  0  0
   -0.4900   -6.5720  -25.9420 C   0  0  1  0  0  3  0  0  0  0  0  0
    0.6310   -5.7670  -25.2750 C   0  0  0  0  0  1  0  0  0  0  0  0
    0.1270   -7.7640  -26.5350 N   0  0  0  0  0  0  0  0  0  0  0  0
   -0.3830   -8.2840  -27.2280 H   0  0  0  0  0  0  0  0  0  0  0  0
    1.5220   -7.8160  -26.5490 C   0  0  0  0  0  0  0  0  0  0  0  0
    2.1540   -7.1340  -27.5190 N   0  0  0  0  0  0  0  0  0  0  0  0
    3.3270   -7.6250  -27.9140 C   0  0  0  0  0  3  0  0  0  0  0  0
    3.8410   -8.7880  -27.5170 N   0  0  0  0  0  0  0  0  0  0  0  0
    3.1760   -9.4300  -26.5300 C   0  0  0  0  0  0  0  0  0  0  0  0
    3.2840  -10.8010  -26.2960 C   0  0  1  0  0  3  0  0  0  0  0  0
    3.0700  -11.3250  -25.0130 C   0  0  0  0  0  2  0  0  0  0  0  0
    2.3110  -10.5860  -24.1220 C   0  0  0  0  0  3  0  0  0  0  0  0
    1.7400   -9.4010  -24.5820 C   0  0  0  0  0  3  0  0  0  0  0  0
    2.1460   -8.8420  -25.8270 C   0  0  0  0  0  0  0  0  0  0  0  0
    2.5810  -11.5450  -27.4010 C   0  0  0  0  0  0  0  0  0  0  0  0
    3.1710  -11.6730  -28.6300 N   0  0  0  0  0  0  0  0  0  0  0  0
    1.5680  -12.1990  -27.1890 O   0  0  0  0  0  0  0  0  0  0  0  0
    2.7240  -12.3290  -29.2610 H   0  0  0  0  0  0  0  0  0  0  0  0
    4.0850  -11.3320  -28.8760 H   0  0  0  0  0  0  0  0  0  0  0  0
  1  9  1  0  0  0  0
  2  1  1  0  0  0  0
  3  2  2  0  0  0  0
  4  5  2  0  0  0  0
  4  3  1  0  0  0  0
  5  6  1  0  0  0  0
  6  1  2  0  0  0  0
  7  8  2  0  0  0  0
  9 10  1  0  0  0  0
  9  7  1  0  0  0  0
 11 12  1  0  0  0  0
 11 15  2  0  0  0  0
 12 13  2  0  0  0  0
 13 14  1  0  0  0  0
 13  7  1  0  0  0  0
 14 16  1  0  0  0  0
 15 14  1  0  0  0  0
 17 18  1  0  0  0  0
 18 19  1  0  0  0  0
 18 11  1  0  0  0  0
 20 21  1  1  0  0  0
 20  5  1  0  0  0  0
 22 20  1  0  0  0  0
 23 22  1  0  0  0  0
 24 22  1  0  0  0  0
 24 33  1  0  0  0  0
 25 24  2  0  0  0  0
 26 25  1  0  0  0  0
 26 27  2  0  0  0  0
 27 28  1  0  0  0  0
 28 29  1  0  0  0  0
 28 33  2  0  0  0  0
 29 34  1  6  0  0  0
 29 30  1  0  0  0  0
 30 31  1  0  0  0  0
 32 31  2  0  0  0  0
 33 32  1  0  0  0  0
 34 36  2  0  0  0  0
 35 34  1  0  0  0  0
 37 35  1  0  0  0  0
 38 35  1  0  0  0  0
M  END
>  <minimizedAffinity>
-5.94111156

$$$$
