
 OpenBabel10152419353D

 38 41  0  0  1  0  0  0  0  0999 V2000
    3.5550  -11.2820  -26.4440 C   0  0  0  0  0  0  0  0  0  0  0  0
    4.2490  -11.6240  -27.6090 C   0  0  0  0  0  3  0  0  0  0  0  0
    4.3500  -10.7300  -28.6740 C   0  0  0  0  0  3  0  0  0  0  0  0
    3.8230   -9.4440  -28.5580 C   0  0  0  0  0  3  0  0  0  0  0  0
    3.1700   -9.0380  -27.3820 C   0  0  0  0  0  0  0  0  0  0  0  0
    2.9960   -9.9960  -26.3400 C   0  0  0  0  0  3  0  0  0  0  0  0
    3.0020  -12.3500  -24.1790 C   0  0  0  0  0  0  0  0  0  0  0  0
    3.6110  -12.9430  -23.2840 O   0  0  0  0  0  0  0  0  0  0  0  0
    3.6330  -12.2160  -25.3920 N   0  0  0  0  0  0  0  0  0  0  0  0
    4.3630  -12.9110  -25.4860 H   0  0  0  0  0  0  0  0  0  0  0  0
   -0.3980  -11.2180  -23.4510 C   0  0  0  0  0  0  0  0  0  0  0  0
    0.9710  -11.1870  -23.0870 C   0  0  0  0  0  3  0  0  0  0  0  0
    1.6280  -11.9770  -24.0030 C   0  0  0  0  0  0  0  0  0  0  0  0
    0.6630  -12.3000  -24.9200 N   0  0  0  0  0  0  0  0  0  0  0  0
   -0.5740  -11.8820  -24.6000 N   0  0  0  0  0  0  0  0  0  0  0  0
    0.7970  -12.8120  -25.7850 H   0  0  0  0  0  0  0  0  0  0  0  0
   -2.0070  -11.6070  -21.5160 C   0  0  0  0  0  1  0  0  0  0  0  0
   -1.5640  -10.6970  -22.6560 C   0  0  0  0  0  3  0  0  0  0  0  0
   -1.2720   -9.2810  -22.1550 C   0  0  0  0  0  1  0  0  0  0  0  0
    2.8270   -7.5560  -27.1520 C   0  0  1  0  0  3  0  0  0  0  0  0
    4.1090   -6.7650  -26.8670 C   0  0  0  0  0  1  0  0  0  0  0  0
    2.1750   -6.9230  -28.3030 N   0  0  0  0  0  0  0  0  0  0  0  0
    2.3150   -7.3140  -29.2190 H   0  0  0  0  0  0  0  0  0  0  0  0
    1.0080   -6.2000  -28.0530 C   0  0  0  0  0  0  0  0  0  0  0  0
    1.0660   -4.8660  -28.2040 N   0  0  0  0  0  0  0  0  0  0  0  0
    0.2450   -4.1510  -27.4380 C   0  0  0  0  0  3  0  0  0  0  0  0
   -0.5140   -4.6470  -26.4610 N   0  0  0  0  0  0  0  0  0  0  0  0
   -0.5490   -5.9940  -26.3570 C   0  0  0  0  0  0  0  0  0  0  0  0
   -0.9010   -6.6670  -25.1860 C   0  0  1  0  0  3  0  0  0  0  0  0
   -1.4610   -7.9500  -25.2410 C   0  0  0  0  0  3  0  0  0  0  0  0
   -1.2280   -8.7190  -26.3680 C   0  0  0  0  0  3  0  0  0  0  0  0
   -0.3860   -8.1970  -27.3480 C   0  0  0  0  0  2  0  0  0  0  0  0
   -0.0040   -6.8250  -27.3130 C   0  0  0  0  0  0  0  0  0  0  0  0
    0.2070   -6.5080  -24.1770 C   0  0  0  0  0  0  0  0  0  0  0  0
    1.3490   -7.2570  -24.2840 N   0  0  0  0  0  0  0  0  0  0  0  0
    0.2000   -5.6000  -23.3560 O   0  0  0  0  0  0  0  0  0  0  0  0
    2.1120   -6.9730  -23.6800 H   0  0  0  0  0  0  0  0  0  0  0  0
    1.5490   -7.9120  -25.0200 H   0  0  0  0  0  0  0  0  0  0  0  0
  1  6  1  0  0  0  0
  1  9  1  0  0  0  0
  2  1  2  0  0  0  0
  3  4  2  0  0  0  0
  3  2  1  0  0  0  0
  4  5  1  0  0  0  0
  5 20  1  0  0  0  0
  5  6  2  0  0  0  0
  7 13  1  0  0  0  0
  7  8  2  0  0  0  0
  9  7  1  0  0  0  0
 10  9  1  0  0  0  0
 11 12  1  0  0  0  0
 11 18  1  0  0  0  0
 13 12  2  0  0  0  0
 14 15  1  0  0  0  0
 14 13  1  0  0  0  0
 15 11  2  0  0  0  0
 16 14  1  0  0  0  0
 18 19  1  0  0  0  0
 18 17  1  0  0  0  0
 20 21  1  6  0  0  0
 22 24  1  0  0  0  0
 22 20  1  0  0  0  0
 23 22  1  0  0  0  0
 24 33  1  0  0  0  0
 25 24  2  0  0  0  0
 25 26  1  0  0  0  0
 26 27  2  0  0  0  0
 27 28  1  0  0  0  0
 28 29  1  0  0  0  0
 29 34  1  1  0  0  0
 30 29  1  0  0  0  0
 31 30  2  0  0  0  0
 32 33  1  0  0  0  0
 32 31  1  0  0  0  0
 33 28  2  0  0  0  0
 34 36  2  0  0  0  0
 35 34  1  0  0  0  0
 35 37  1  0  0  0  0
 38 35  1  0  0  0  0
M  END
>  <minimizedAffinity>
-7.55336046

$$$$
