
 OpenBabel10152419353D

 38 41  0  0  1  0  0  0  0  0999 V2000
   -2.1890   -7.4480  -22.5860 C   0  0  0  0  0  0  0  0  0  0  0  0
   -3.3990   -7.9740  -23.0510 C   0  0  0  0  0  3  0  0  0  0  0  0
   -3.7380   -7.9080  -24.4010 C   0  0  0  0  0  3  0  0  0  0  0  0
   -2.8340   -7.3850  -25.3240 C   0  0  0  0  0  3  0  0  0  0  0  0
   -1.5820   -6.9000  -24.9090 C   0  0  0  0  0  0  0  0  0  0  0  0
   -1.2910   -6.8900  -23.5130 C   0  0  0  0  0  3  0  0  0  0  0  0
   -1.9560   -8.7960  -20.4160 C   0  0  0  0  0  0  0  0  0  0  0  0
   -2.1360   -8.6090  -19.2100 O   0  0  0  0  0  0  0  0  0  0  0  0
   -1.9020   -7.6880  -21.2280 N   0  0  0  0  0  0  0  0  0  0  0  0
   -1.6820   -6.8650  -20.6810 H   0  0  0  0  0  0  0  0  0  0  0  0
   -0.9040  -11.9820  -21.8710 C   0  0  0  0  0  0  0  0  0  0  0  0
   -0.6930  -10.5830  -21.7870 C   0  0  0  0  0  3  0  0  0  0  0  0
   -1.6410  -10.1050  -20.9130 C   0  0  0  0  0  0  0  0  0  0  0  0
   -2.2460  -11.2330  -20.4240 N   0  0  0  0  0  0  0  0  0  0  0  0
   -1.8440  -12.3780  -21.0030 N   0  0  0  0  0  0  0  0  0  0  0  0
   -2.9480  -11.2760  -19.6940 H   0  0  0  0  0  0  0  0  0  0  0  0
   -0.6660  -12.7040  -24.3010 C   0  0  0  0  0  1  0  0  0  0  0  0
   -0.2780  -12.9410  -22.8460 C   0  0  0  0  0  3  0  0  0  0  0  0
    1.2430  -12.9560  -22.6720 C   0  0  0  0  0  1  0  0  0  0  0  0
   -0.4900   -6.5720  -25.9420 C   0  0  1  0  0  3  0  0  0  0  0  0
    0.6310   -5.7670  -25.2750 C   0  0  0  0  0  1  0  0  0  0  0  0
    0.1270   -7.7640  -26.5350 N   0  0  0  0  0  0  0  0  0  0  0  0
   -0.3830   -8.2840  -27.2280 H   0  0  0  0  0  0  0  0  0  0  0  0
    1.5220   -7.8160  -26.5490 C   0  0  0  0  0  0  0  0  0  0  0  0
    2.1540   -7.1340  -27.5190 N   0  0  0  0  0  0  0  0  0  0  0  0
    3.3270   -7.6250  -27.9140 C   0  0  0  0  0  3  0  0  0  0  0  0
    3.8410   -8.7880  -27.5170 N   0  0  0  0  0  0  0  0  0  0  0  0
    3.1760   -9.4300  -26.5300 C   0  0  0  0  0  0  0  0  0  0  0  0
    3.2840  -10.8010  -26.2960 C   0  0  1  0  0  3  0  0  0  0  0  0
    3.0700  -11.3250  -25.0130 C   0  0  0  0  0  2  0  0  0  0  0  0
    2.3110  -10.5860  -24.1220 C   0  0  0  0  0  3  0  0  0  0  0  0
    1.7400   -9.4010  -24.5820 C   0  0  0  0  0  3  0  0  0  0  0  0
    2.1460   -8.8420  -25.8270 C   0  0  0  0  0  0  0  0  0  0  0  0
    2.5810  -11.5450  -27.4010 C   0  0  0  0  0  0  0  0  0  0  0  0
    3.1710  -11.6730  -28.6300 N   0  0  0  0  0  0  0  0  0  0  0  0
    1.5680  -12.1990  -27.1890 O   0  0  0  0  0  0  0  0  0  0  0  0
    2.7240  -12.3290  -29.2610 H   0  0  0  0  0  0  0  0  0  0  0  0
    4.0850  -11.3320  -28.8760 H   0  0  0  0  0  0  0  0  0  0  0  0
  1  9  1  0  0  0  0
  2  1  1  0  0  0  0
  3  2  2  0  0  0  0
  4  5  2  0  0  0  0
  4  3  1  0  0  0  0
  5  6  1  0  0  0  0
  6  1  2  0  0  0  0
  7  8  2  0  0  0  0
  9 10  1  0  0  0  0
  9  7  1  0  0  0  0
 11 12  1  0  0  0  0
 11 15  2  0  0  0  0
 12 13  2  0  0  0  0
 13 14  1  0  0  0  0
 13  7  1  0  0  0  0
 14 16  1  0  0  0  0
 15 14  1  0  0  0  0
 17 18  1  0  0  0  0
 18 19  1  0  0  0  0
 18 11  1  0  0  0  0
 20 21  1  1  0  0  0
 20  5  1  0  0  0  0
 22 20  1  0  0  0  0
 23 22  1  0  0  0  0
 24 22  1  0  0  0  0
 24 33  1  0  0  0  0
 25 24  2  0  0  0  0
 26 25  1  0  0  0  0
 26 27  2  0  0  0  0
 27 28  1  0  0  0  0
 28 29  1  0  0  0  0
 28 33  2  0  0  0  0
 29 34  1  6  0  0  0
 29 30  1  0  0  0  0
 30 31  1  0  0  0  0
 32 31  2  0  0  0  0
 33 32  1  0  0  0  0
 34 36  2  0  0  0  0
 35 34  1  0  0  0  0
 37 35  1  0  0  0  0
 38 35  1  0  0  0  0
M  END
>  <minimizedAffinity>
-5.94111156

$$$$
