
 OpenBabel10152419353D

 38 41  0  0  1  0  0  0  0  0999 V2000
    0.9810  -12.0050  -24.6420 C   0  0  0  0  0  0  0  0  0  0  0  0
    0.9400  -12.7500  -25.8250 C   0  0  0  0  0  3  0  0  0  0  0  0
    1.5450  -12.2790  -26.9900 C   0  0  0  0  0  3  0  0  0  0  0  0
    2.2690  -11.0890  -26.9690 C   0  0  0  0  0  3  0  0  0  0  0  0
    2.3860  -10.3390  -25.7860 C   0  0  0  0  0  0  0  0  0  0  0  0
    1.6840  -10.7880  -24.6290 C   0  0  0  0  0  3  0  0  0  0  0  0
   -0.0610  -12.2000  -22.3060 C   0  0  0  0  0  0  0  0  0  0  0  0
    0.0220  -12.9600  -21.3380 O   0  0  0  0  0  0  0  0  0  0  0  0
    0.4480  -12.6420  -23.5040 N   0  0  0  0  0  0  0  0  0  0  0  0
    0.5140  -13.6520  -23.5040 H   0  0  0  0  0  0  0  0  0  0  0  0
   -1.9790   -9.0880  -22.4230 C   0  0  0  0  0  0  0  0  0  0  0  0
   -1.3400  -10.1220  -23.1520 C   0  0  0  0  0  3  0  0  0  0  0  0
   -0.8150  -10.9830  -22.2160 C   0  0  0  0  0  0  0  0  0  0  0  0
   -1.2880  -10.5070  -21.0210 N   0  0  0  0  0  0  0  0  0  0  0  0
   -1.9680   -9.3500  -21.1100 N   0  0  0  0  0  0  0  0  0  0  0  0
   -1.1690  -10.9340  -20.1090 H   0  0  0  0  0  0  0  0  0  0  0  0
   -4.0450   -7.7010  -22.9640 C   0  0  0  0  0  1  0  0  0  0  0  0
   -2.5230   -7.7940  -22.9630 C   0  0  0  0  0  3  0  0  0  0  0  0
   -1.8950   -6.6080  -22.2270 C   0  0  0  0  0  1  0  0  0  0  0  0
    3.3930   -9.1790  -25.6940 C   0  0  1  0  0  3  0  0  0  0  0  0
    4.3620   -9.2370  -26.8790 C   0  0  0  0  0  1  0  0  0  0  0  0
    2.7600   -7.8550  -25.7160 N   0  0  0  0  0  0  0  0  0  0  0  0
    3.1250   -7.1300  -25.1240 H   0  0  0  0  0  0  0  0  0  0  0  0
    2.0880   -7.4930  -26.8850 C   0  0  0  0  0  0  0  0  0  0  0  0
    2.8100   -6.9030  -27.8530 N   0  0  0  0  0  0  0  0  0  0  0  0
    2.1540   -6.0510  -28.6380 C   0  0  0  0  0  3  0  0  0  0  0  0
    0.8960   -5.6540  -28.4520 N   0  0  0  0  0  0  0  0  0  0  0  0
    0.2080   -6.2870  -27.4760 C   0  0  0  0  0  0  0  0  0  0  0  0
   -0.9140   -5.7420  -26.8490 C   0  0  1  0  0  3  0  0  0  0  0  0
   -1.8960   -6.5750  -26.2950 C   0  0  0  0  0  2  0  0  0  0  0  0
   -1.5410   -7.8680  -25.9500 C   0  0  0  0  0  3  0  0  0  0  0  0
   -0.2060   -8.2380  -26.1030 C   0  0  0  0  0  3  0  0  0  0  0  0
    0.6900   -7.4100  -26.8380 C   0  0  0  0  0  0  0  0  0  0  0  0
   -0.4770   -4.6100  -25.9570 C   0  0  0  0  0  0  0  0  0  0  0  0
   -0.2140   -3.3750  -26.4880 N   0  0  0  0  0  0  0  0  0  0  0  0
   -0.5170   -4.7030  -24.7370 O   0  0  0  0  0  0  0  0  0  0  0  0
   -0.0970   -2.6280  -25.8140 H   0  0  0  0  0  0  0  0  0  0  0  0
   -0.3160   -3.1250  -27.4570 H   0  0  0  0  0  0  0  0  0  0  0  0
  1  6  1  0  0  0  0
  1  9  1  0  0  0  0
  2  1  2  0  0  0  0
  3  4  2  0  0  0  0
  3  2  1  0  0  0  0
  4  5  1  0  0  0  0
  5 20  1  0  0  0  0
  5  6  2  0  0  0  0
  7 13  1  0  0  0  0
  7  8  2  0  0  0  0
  9 10  1  0  0  0  0
  9  7  1  0  0  0  0
 11 15  2  0  0  0  0
 12 11  1  0  0  0  0
 12 13  2  0  0  0  0
 13 14  1  0  0  0  0
 14 16  1  0  0  0  0
 15 14  1  0  0  0  0
 17 18  1  0  0  0  0
 18 11  1  0  0  0  0
 18 19  1  0  0  0  0
 20 21  1  6  0  0  0
 22 20  1  0  0  0  0
 22 23  1  0  0  0  0
 24 33  1  0  0  0  0
 24 22  1  0  0  0  0
 25 24  2  0  0  0  0
 26 27  2  0  0  0  0
 26 25  1  0  0  0  0
 27 28  1  0  0  0  0
 28 29  1  0  0  0  0
 28 33  2  0  0  0  0
 29 30  1  0  0  0  0
 29 34  1  1  0  0  0
 30 31  1  0  0  0  0
 32 31  2  0  0  0  0
 33 32  1  0  0  0  0
 34 36  2  0  0  0  0
 35 34  1  0  0  0  0
 35 37  1  0  0  0  0
 38 35  1  0  0  0  0
M  END
>  <minimizedAffinity>
-7.44651842

$$$$
