REMARK  Name = 
REMARK  10 active torsions:
REMARK  status: ('A' for Active; 'I' for Inactive)
REMARK    1  A    between atoms: C_1  and  C_2
REMARK    2  A    between atoms: C_2  and  C_3
REMARK    3  A    between atoms: C_2  and  C_4
REMARK    4  A    between atoms: C_6  and  C_7
REMARK    5  A    between atoms: N_9  and  C_10
REMARK    6  A    between atoms: C_14  and  C_15
REMARK    7  A    between atoms: C_15  and  C_16
REMARK    8  A    between atoms: C_15  and  N_17
REMARK    9  A    between atoms: N_17  and  C_18
REMARK   10  A    between atoms: C_23  and  C_24
REMARK                            x       y       z     vdW  Elec       q    Type
REMARK                         _______ _______ _______ _____ _____    ______ ____
ROOT
ATOM      1  C   UNL     1      -2.041  -5.048   1.071  0.00  0.00    +0.034 A 
ATOM      2  C   UNL     1      -1.742  -6.219   0.367  0.00  0.00    +0.023 A 
ATOM      3  C   UNL     1      -0.574  -6.934   0.627  0.00  0.00    +0.002 A 
ATOM      4  C   UNL     1       0.278  -6.531   1.654  0.00  0.00    +0.005 A 
ATOM      5  C   UNL     1      -0.015  -5.394   2.426  0.00  0.00    -0.026 A 
ATOM      6  C   UNL     1      -1.165  -4.623   2.085  0.00  0.00    +0.028 A 
ENDROOT
BRANCH   1   9
ATOM      7  C   UNL     1      -3.856  -3.238   0.974  0.00  0.00    +0.266 C 
ATOM      8  O   UNL     1      -5.077  -3.170   1.135  0.00  0.00    -0.268 OA
ATOM      9  N   UNL     1      -3.307  -4.487   0.810  0.00  0.00    -0.280 N 
ATOM     10  H   UNL     1      -4.016  -5.144   0.509  0.00  0.00    +0.155 HD
BRANCH   7  13
ATOM     11  C   UNL     1      -1.620  -0.406   0.379  0.00  0.00    +0.066 A 
ATOM     12  C   UNL     1      -1.823  -1.805   0.279  0.00  0.00    +0.057 A 
ATOM     13  C   UNL     1      -3.077  -2.047   0.791  0.00  0.00    +0.121 A 
ATOM     14  N   UNL     1      -3.593  -0.798   1.019  0.00  0.00    -0.272 N 
ATOM     15  N   UNL     1      -2.729   0.210   0.808  0.00  0.00    -0.178 NA
ATOM     16  H   UNL     1      -4.534  -0.578   1.326  0.00  0.00    +0.189 HD
BRANCH  11  18
ATOM     17  C   UNL     1      -0.455   1.524  -0.805  0.00  0.00    +0.014 C 
ATOM     18  C   UNL     1      -0.337   0.347   0.157  0.00  0.00    +0.033 C 
ATOM     19  C   UNL     1       0.259   0.784   1.497  0.00  0.00    +0.014 C 
ENDBRANCH  11  18
ENDBRANCH   7  13
ENDBRANCH   1   9
BRANCH   5  20
ATOM     20  C   UNL     1       0.772  -5.103   3.716  0.00  0.00    +0.099 C 
ATOM     21  C   UNL     1       0.438  -6.157   4.777  0.00  0.00    +0.033 C 
BRANCH  20  22
ATOM     22  N   UNL     1       2.227  -5.124   3.528  0.00  0.00    -0.322 N 
ATOM     23  H   UNL     1       2.659  -5.952   3.157  0.00  0.00    +0.148 HD
BRANCH  22  24
ATOM     24  C   UNL     1       2.860  -3.894   3.340  0.00  0.00    +0.130 A 
ATOM     25  N   UNL     1       2.409  -2.853   4.060  0.00  0.00    -0.220 NA
ATOM     26  C   UNL     1       2.542  -1.651   3.503  0.00  0.00    +0.223 A 
ATOM     27  N   UNL     1       2.959  -1.429   2.257  0.00  0.00    -0.235 NA
ATOM     28  C   UNL     1       3.415  -2.505   1.578  0.00  0.00    +0.088 A 
ATOM     29  C   UNL     1       3.470  -2.569   0.185  0.00  0.00    +0.063 A 
ATOM     30  C   UNL     1       4.412  -3.386  -0.455  0.00  0.00    +0.015 A 
ATOM     31  C   UNL     1       4.941  -4.453   0.251  0.00  0.00    +0.002 A 
ATOM     32  C   UNL     1       4.446  -4.695   1.531  0.00  0.00    +0.013 A 
ATOM     33  C   UNL     1       3.632  -3.725   2.183  0.00  0.00    +0.041 A 
BRANCH  29  34
ATOM     34  C   UNL     1       2.069  -2.684  -0.357  0.00  0.00    +0.244 C 
ATOM     35  N   UNL     1       1.834  -3.362  -1.523  0.00  0.00    -0.325 N 
ATOM     36  O   UNL     1       1.097  -2.341   0.304  0.00  0.00    -0.270 OA
ATOM     37  H   UNL     1       0.859  -3.546  -1.730  0.00  0.00    +0.145 HD
ATOM     38  H   UNL     1       2.530  -3.842  -2.068  0.00  0.00    +0.145 HD
ENDBRANCH  29  34
ENDBRANCH  22  24
ENDBRANCH  20  22
ENDBRANCH   5  20
TORSDOF 7
