
 OpenBabel10152419403D

 35 38  0  0  1  0  0  0  0  0999 V2000
   -0.5300   -5.0850  -25.0410 C   0  0  0  0  0  1  0  0  0  0  0  0
   -0.0360   -6.5280  -25.2420 C   0  0  2  0  0  3  0  0  0  0  0  0
    1.0450   -6.6100  -26.3150 C   0  0  0  0  0  0  0  0  0  0  0  0
    0.9410   -5.9890  -27.5660 C   0  0  0  0  0  3  0  0  0  0  0  0
    1.9170   -6.2010  -28.5440 C   0  0  0  0  0  3  0  0  0  0  0  0
    2.9630   -7.0990  -28.3200 C   0  0  0  0  0  3  0  0  0  0  0  0
    3.0620   -7.7660  -27.1010 C   0  0  0  0  0  0  0  0  0  0  0  0
    2.1670   -7.4220  -26.0790 C   0  0  0  0  0  3  0  0  0  0  0  0
    3.9640   -8.8290  -26.8510 N   0  0  0  0  0  0  0  0  0  0  0  0
    3.7800  -10.1760  -27.1750 C   0  0  0  0  0  0  0  0  0  0  0  0
    3.9910  -10.6450  -28.4600 C   0  0  0  0  0  3  0  0  0  0  0  0
    3.7970  -12.0020  -28.7090 C   0  0  0  0  0  0  0  0  0  0  0  0
    3.3480  -12.8370  -27.6880 C   0  0  0  0  0  3  0  0  0  0  0  0
    3.1580  -12.2800  -26.4390 C   0  0  0  0  0  3  0  0  0  0  0  0
    3.3980  -10.9820  -26.1660 N   0  0  0  0  0  0  0  0  0  0  0  0
    4.1690   -8.8260  -25.8510 H   0  0  0  0  0  0  0  0  0  0  0  0
    4.0810  -12.5380  -30.0040 C   0  0  0  0  0  0  0  0  0  0  0  0
    4.3080  -12.9590  -31.0630 N   0  0  0  0  0  0  0  0  0  0  0  0
   -1.2120   -7.3820  -25.4890 N   0  0  0  0  0  0  0  0  0  0  0  0
   -1.4920   -7.3880  -26.4670 H   0  0  0  0  0  0  0  0  0  0  0  0
   -1.3570   -8.6820  -25.0430 C   0  0  0  0  0  0  0  0  0  0  0  0
   -1.3450   -9.5600  -26.0560 N   0  0  0  0  0  0  0  0  0  0  0  0
   -1.3080  -10.8470  -25.7220 C   0  0  0  0  0  3  0  0  0  0  0  0
   -1.2560  -11.3370  -24.4790 N   0  0  0  0  0  0  0  0  0  0  0  0
   -1.3330  -10.4620  -23.4500 C   0  0  0  0  0  0  0  0  0  0  0  0
   -1.2890  -10.8800  -22.1020 C   0  0  0  0  0  0  0  0  0  0  0  0
   -1.4740   -9.9660  -21.0470 C   0  0  0  0  0  3  0  0  0  0  0  0
   -1.7280   -8.6290  -21.3110 C   0  0  0  0  0  3  0  0  0  0  0  0
   -1.7310   -8.1930  -22.6300 C   0  0  0  0  0  3  0  0  0  0  0  0
   -1.4710   -9.0830  -23.7010 C   0  0  0  0  0  0  0  0  0  0  0  0
   -1.0370  -12.3000  -21.6930 C   0  0  0  0  0  0  0  0  0  0  0  0
    0.0130  -12.9590  -22.2620 N   0  0  0  0  0  0  0  0  0  0  0  0
   -1.7440  -12.8770  -20.8720 O   0  0  0  0  0  0  0  0  0  0  0  0
    0.1980  -13.9160  -21.9970 H   0  0  0  0  0  0  0  0  0  0  0  0
    0.6040  -12.4980  -22.9470 H   0  0  0  0  0  0  0  0  0  0  0  0
  2  1  1  6  0  0  0
  3  8  1  0  0  0  0
  3  2  1  0  0  0  0
  4  3  2  0  0  0  0
  5  6  2  0  0  0  0
  5  4  1  0  0  0  0
  6  7  1  0  0  0  0
  7  9  1  0  0  0  0
  7  8  2  0  0  0  0
  9 16  1  0  0  0  0
 10  9  1  0  0  0  0
 10 15  1  0  0  0  0
 11 10  2  0  0  0  0
 12 11  1  0  0  0  0
 12 13  2  0  0  0  0
 13 14  1  0  0  0  0
 14 15  2  0  0  0  0
 17 12  1  0  0  0  0
 18 17  3  0  0  0  0
 19  2  1  0  0  0  0
 19 21  1  0  0  0  0
 20 19  1  0  0  0  0
 21 30  1  0  0  0  0
 22 23  1  0  0  0  0
 22 21  2  0  0  0  0
 23 24  2  0  0  0  0
 24 25  1  0  0  0  0
 25 26  1  0  0  0  0
 26 31  1  0  0  0  0
 26 27  2  0  0  0  0
 28 27  1  0  0  0  0
 29 28  2  0  0  0  0
 30 25  2  0  0  0  0
 30 29  1  0  0  0  0
 31 33  2  0  0  0  0
 32 34  1  0  0  0  0
 32 31  1  0  0  0  0
 35 32  1  0  0  0  0
M  END
>  <minimizedAffinity>
-9.00409412

$$$$
