
 OpenBabel10152419403D

 35 38  0  0  1  0  0  0  0  0999 V2000
    3.0940  -11.1740  -28.0740 C   0  0  0  0  0  1  0  0  0  0  0  0
    4.1270  -11.1430  -26.9350 C   0  0  2  0  0  3  0  0  0  0  0  0
    3.5310  -11.6250  -25.6180 C   0  0  0  0  0  0  0  0  0  0  0  0
    4.2080  -12.4620  -24.7220 C   0  0  0  0  0  3  0  0  0  0  0  0
    3.5590  -12.9590  -23.5880 C   0  0  0  0  0  3  0  0  0  0  0  0
    2.2030  -12.6990  -23.3760 C   0  0  0  0  0  3  0  0  0  0  0  0
    1.4940  -11.9090  -24.2780 C   0  0  0  0  0  0  0  0  0  0  0  0
    2.1980  -11.2920  -25.3200 C   0  0  0  0  0  3  0  0  0  0  0  0
    0.0860  -11.7510  -24.2550 N   0  0  0  0  0  0  0  0  0  0  0  0
   -0.6540  -10.9870  -23.3480 C   0  0  0  0  0  0  0  0  0  0  0  0
   -0.7620   -9.6130  -23.4810 C   0  0  0  0  0  3  0  0  0  0  0  0
   -1.5240   -8.9170  -22.5450 C   0  0  0  0  0  0  0  0  0  0  0  0
   -2.1080   -9.5990  -21.4790 C   0  0  0  0  0  3  0  0  0  0  0  0
   -1.9410  -10.9680  -21.4250 C   0  0  0  0  0  3  0  0  0  0  0  0
   -1.2570  -11.6650  -22.3540 N   0  0  0  0  0  0  0  0  0  0  0  0
   -0.3250  -12.6840  -24.2080 H   0  0  0  0  0  0  0  0  0  0  0  0
   -1.7240   -7.5090  -22.6940 C   0  0  0  0  0  0  0  0  0  0  0  0
   -1.8720   -6.3630  -22.8150 N   0  0  0  0  0  0  0  0  0  0  0  0
    4.7090   -9.7880  -26.8860 N   0  0  0  0  0  0  0  0  0  0  0  0
    5.6810   -9.7700  -27.1880 H   0  0  0  0  0  0  0  0  0  0  0  0
    4.1240   -8.6540  -27.4150 C   0  0  0  0  0  0  0  0  0  0  0  0
    4.6630   -8.3190  -28.5950 N   0  0  0  0  0  0  0  0  0  0  0  0
    4.0580   -7.3430  -29.2660 C   0  0  0  0  0  3  0  0  0  0  0  0
    2.9560   -6.6900  -28.8830 N   0  0  0  0  0  0  0  0  0  0  0  0
    2.4430   -6.9750  -27.6650 C   0  0  0  0  0  0  0  0  0  0  0  0
    1.2840   -6.3390  -27.1690 C   0  0  0  0  0  0  0  0  0  0  0  0
    0.8240   -6.5740  -25.8590 C   0  0  0  0  0  3  0  0  0  0  0  0
    1.5180   -7.4250  -25.0120 C   0  0  0  0  0  3  0  0  0  0  0  0
    2.6350   -8.0930  -25.4980 C   0  0  0  0  0  3  0  0  0  0  0  0
    3.0680   -7.9270  -26.8370 C   0  0  0  0  0  0  0  0  0  0  0  0
    0.4590   -5.3890  -27.9840 C   0  0  0  0  0  0  0  0  0  0  0  0
    1.1010   -4.3960  -28.6650 N   0  0  0  0  0  0  0  0  0  0  0  0
   -0.7640   -5.4790  -28.0520 O   0  0  0  0  0  0  0  0  0  0  0  0
    0.5610   -3.7480  -29.2190 H   0  0  0  0  0  0  0  0  0  0  0  0
    2.1110   -4.3040  -28.6150 H   0  0  0  0  0  0  0  0  0  0  0  0
  2  1  1  6  0  0  0
  2 19  1  0  0  0  0
  2  3  1  0  0  0  0
  3  8  2  0  0  0  0
  3  4  1  0  0  0  0
  4  5  2  0  0  0  0
  5  6  1  0  0  0  0
  7  9  1  0  0  0  0
  7  6  2  0  0  0  0
  8  7  1  0  0  0  0
  9 16  1  0  0  0  0
  9 10  1  0  0  0  0
 10 15  1  0  0  0  0
 11 10  2  0  0  0  0
 11 12  1  0  0  0  0
 12 13  2  0  0  0  0
 13 14  1  0  0  0  0
 15 14  2  0  0  0  0
 17 12  1  0  0  0  0
 18 17  3  0  0  0  0
 20 19  1  0  0  0  0
 21 19  1  0  0  0  0
 21 30  1  0  0  0  0
 22 21  2  0  0  0  0
 23 24  2  0  0  0  0
 23 22  1  0  0  0  0
 24 25  1  0  0  0  0
 25 26  2  0  0  0  0
 25 30  1  0  0  0  0
 26 27  1  0  0  0  0
 27 28  2  0  0  0  0
 29 28  1  0  0  0  0
 30 29  2  0  0  0  0
 31 26  1  0  0  0  0
 32 35  1  0  0  0  0
 32 31  1  0  0  0  0
 33 31  2  0  0  0  0
 34 32  1  0  0  0  0
M  END
>  <minimizedAffinity>
-9.17556763

$$$$
