
 OpenBabel10152419403D

 35 38  0  0  1  0  0  0  0  0999 V2000
   -3.6700   -7.5880  -22.9190 C   0  0  0  0  0  1  0  0  0  0  0  0
   -2.3170   -8.2060  -23.3110 C   0  0  2  0  0  3  0  0  0  0  0  0
   -1.9450   -9.3710  -22.4010 C   0  0  0  0  0  0  0  0  0  0  0  0
   -1.8000   -9.2530  -21.0130 C   0  0  0  0  0  3  0  0  0  0  0  0
   -1.3440  -10.3350  -20.2540 C   0  0  0  0  0  3  0  0  0  0  0  0
   -0.9460  -11.5200  -20.8770 C   0  0  0  0  0  3  0  0  0  0  0  0
   -1.0350  -11.6460  -22.2610 C   0  0  0  0  0  0  0  0  0  0  0  0
   -1.6410  -10.6120  -22.9860 C   0  0  0  0  0  3  0  0  0  0  0  0
   -0.4800  -12.7240  -22.9950 N   0  0  0  0  0  0  0  0  0  0  0  0
    0.2100  -12.6420  -24.2080 C   0  0  0  0  0  0  0  0  0  0  0  0
    1.5410  -12.2660  -24.2560 C   0  0  0  0  0  3  0  0  0  0  0  0
    2.1690  -12.2150  -25.4990 C   0  0  0  0  0  0  0  0  0  0  0  0
    1.4400  -12.4860  -26.6560 C   0  0  0  0  0  3  0  0  0  0  0  0
    0.1160  -12.8470  -26.5110 C   0  0  0  0  0  3  0  0  0  0  0  0
   -0.4910  -12.9590  -25.3120 N   0  0  0  0  0  0  0  0  0  0  0  0
   -1.2320  -13.3940  -23.1660 H   0  0  0  0  0  0  0  0  0  0  0  0
    3.5630  -11.9070  -25.5830 C   0  0  0  0  0  0  0  0  0  0  0  0
    4.6930  -11.6480  -25.6630 N   0  0  0  0  0  0  0  0  0  0  0  0
   -1.3190   -7.1220  -23.3610 N   0  0  0  0  0  0  0  0  0  0  0  0
   -0.7880   -7.0410  -22.4970 H   0  0  0  0  0  0  0  0  0  0  0  0
   -0.4130   -6.9240  -24.3850 C   0  0  0  0  0  0  0  0  0  0  0  0
    0.3210   -8.0210  -24.6200 N   0  0  0  0  0  0  0  0  0  0  0  0
    1.1030   -7.9900  -25.6950 C   0  0  0  0  0  3  0  0  0  0  0  0
    1.2020   -6.9820  -26.5680 N   0  0  0  0  0  0  0  0  0  0  0  0
    0.5160   -5.8470  -26.3050 C   0  0  0  0  0  0  0  0  0  0  0  0
    0.5550   -4.7270  -27.1640 C   0  0  0  0  0  0  0  0  0  0  0  0
   -0.0830   -3.5200  -26.8210 C   0  0  0  0  0  3  0  0  0  0  0  0
   -0.7510   -3.3960  -25.6130 C   0  0  0  0  0  3  0  0  0  0  0  0
   -0.8380   -4.5010  -24.7760 C   0  0  0  0  0  3  0  0  0  0  0  0
   -0.2670   -5.7460  -25.1390 C   0  0  0  0  0  0  0  0  0  0  0  0
    1.2580   -4.7360  -28.4880 C   0  0  0  0  0  0  0  0  0  0  0  0
    2.0970   -5.7750  -28.7680 N   0  0  0  0  0  0  0  0  0  0  0  0
    1.1030   -3.8410  -29.3150 O   0  0  0  0  0  0  0  0  0  0  0  0
    2.5780   -5.7960  -29.6550 H   0  0  0  0  0  0  0  0  0  0  0  0
    2.2410   -6.5190  -28.0930 H   0  0  0  0  0  0  0  0  0  0  0  0
  2  1  1  1  0  0  0
  2  3  1  0  0  0  0
  3  4  1  0  0  0  0
  4  5  2  0  0  0  0
  6  5  1  0  0  0  0
  7  6  2  0  0  0  0
  8  3  2  0  0  0  0
  8  7  1  0  0  0  0
  9  7  1  0  0  0  0
 10  9  1  0  0  0  0
 11 10  1  0  0  0  0
 12 11  2  0  0  0  0
 13 14  2  0  0  0  0
 13 12  1  0  0  0  0
 14 15  1  0  0  0  0
 15 10  2  0  0  0  0
 16  9  1  0  0  0  0
 17 12  1  0  0  0  0
 18 17  3  0  0  0  0
 19  2  1  0  0  0  0
 19 20  1  0  0  0  0
 21 19  1  0  0  0  0
 22 21  1  0  0  0  0
 23 22  2  0  0  0  0
 24 25  2  0  0  0  0
 24 23  1  0  0  0  0
 25 30  1  0  0  0  0
 26 27  2  0  0  0  0
 26 25  1  0  0  0  0
 27 28  1  0  0  0  0
 28 29  2  0  0  0  0
 30 29  1  0  0  0  0
 30 21  2  0  0  0  0
 31 26  1  0  0  0  0
 32 31  1  0  0  0  0
 32 35  1  0  0  0  0
 33 31  2  0  0  0  0
 34 32  1  0  0  0  0
M  END
>  <minimizedAffinity>
-7.37097692

$$$$
