REMARK  Name = 
REMARK  7 active torsions:
REMARK  status: ('A' for Active; 'I' for Inactive)
REMARK    1  A    between atoms: C_1  and  C_2
REMARK    2  A    between atoms: C_2  and  N_3
REMARK    3  A    between atoms: C_2  and  C_17
REMARK    4  A    between atoms: N_3  and  C_4
REMARK    5  A    between atoms: C_9  and  C_10
REMARK    6  A    between atoms: C_21  and  N_22
REMARK    7  A    between atoms: C_25  and  C_26
REMARK                            x       y       z     vdW  Elec       q    Type
REMARK                         _______ _______ _______ _____ _____    ______ ____
ROOT
ATOM      1  C   UNL     1       1.100  -0.209  -0.140  0.00  0.00    +0.033 C 
ATOM      2  C   UNL     1       0.275  -1.453   0.231  0.00  0.00    +0.099 C 
ENDROOT
BRANCH   2   3
ATOM      3  C   UNL     1      -1.222  -1.167   0.201  0.00  0.00    -0.026 A 
ATOM      4  C   UNL     1      -1.800  -0.011   0.741  0.00  0.00    +0.005 A 
ATOM      5  C   UNL     1      -3.190   0.133   0.782  0.00  0.00    +0.002 A 
ATOM      6  C   UNL     1      -4.023  -0.907   0.364  0.00  0.00    +0.023 A 
ATOM      7  C   UNL     1      -3.473  -2.087  -0.132  0.00  0.00    +0.033 A 
ATOM      8  C   UNL     1      -2.085  -2.150  -0.312  0.00  0.00    +0.028 A 
BRANCH   7   9
ATOM      9  N   UNL     1      -4.222  -3.260  -0.396  0.00  0.00    -0.299 N 
ATOM     10  C   UNL     1      -5.548  -3.506  -0.029  0.00  0.00    +0.124 A 
ATOM     11  C   UNL     1      -6.606  -2.981  -0.751  0.00  0.00    +0.062 A 
ATOM     12  C   UNL     1      -7.902  -3.275  -0.332  0.00  0.00    +0.056 A 
ATOM     13  C   UNL     1      -8.104  -4.034   0.819  0.00  0.00    +0.038 A 
ATOM     14  C   UNL     1      -6.989  -4.510   1.478  0.00  0.00    +0.114 A 
ATOM     15  N   UNL     1      -5.729  -4.285   1.054  0.00  0.00    -0.240 NA
ATOM     16  H   UNL     1      -3.695  -4.049  -0.019  0.00  0.00    +0.154 HD
BRANCH  12  17
ATOM     17  C   UNL     1      -9.020  -2.817  -1.097  0.00  0.00    +0.099 C 
ATOM     18  N   UNL     1      -9.928  -2.458  -1.727  0.00  0.00    -0.191 NA
ENDBRANCH  12  17
ENDBRANCH   7   9
ENDBRANCH   2   3
BRANCH   2  19
ATOM     19  N   UNL     1       0.777  -1.964   1.520  0.00  0.00    -0.322 N 
ATOM     20  H   UNL     1       1.390  -1.302   1.990  0.00  0.00    +0.148 HD
BRANCH  19  21
ATOM     21  C   UNL     1      -0.006  -2.528   2.509  0.00  0.00    +0.130 A 
ATOM     22  N   UNL     1       0.075  -1.844   3.659  0.00  0.00    -0.220 NA
ATOM     23  C   UNL     1      -0.768  -2.205   4.622  0.00  0.00    +0.223 A 
ATOM     24  N   UNL     1      -1.698  -3.162   4.537  0.00  0.00    -0.235 NA
ATOM     25  C   UNL     1      -1.744  -3.901   3.405  0.00  0.00    +0.088 A 
ATOM     26  C   UNL     1      -2.687  -4.935   3.219  0.00  0.00    +0.063 A 
ATOM     27  C   UNL     1      -2.653  -5.759   2.078  0.00  0.00    +0.015 A 
ATOM     28  C   UNL     1      -1.671  -5.587   1.115  0.00  0.00    +0.002 A 
ATOM     29  C   UNL     1      -0.762  -4.546   1.260  0.00  0.00    +0.013 A 
ATOM     30  C   UNL     1      -0.828  -3.659   2.363  0.00  0.00    +0.041 A 
BRANCH  26  31
ATOM     31  C   UNL     1      -3.785  -5.227   4.197  0.00  0.00    +0.244 C 
ATOM     32  N   UNL     1      -3.856  -4.475   5.333  0.00  0.00    -0.325 N 
ATOM     33  O   UNL     1      -4.610  -6.116   4.005  0.00  0.00    -0.270 OA
ATOM     34  H   UNL     1      -4.589  -4.658   6.002  0.00  0.00    +0.145 HD
ATOM     35  H   UNL     1      -3.178  -3.740   5.510  0.00  0.00    +0.145 HD
ENDBRANCH  26  31
ENDBRANCH  19  21
ENDBRANCH   2  19
TORSDOF 6
