
 OpenBabel10152419393D

 39 42  0  0  0  0  0  0  0  0999 V2000
   -0.6180   -6.0980  -26.9580 C   0  0  0  0  0  0  0  0  0  0  0  0
   -0.7410   -4.7130  -26.7850 C   0  0  0  0  0  3  0  0  0  0  0  0
    0.2500   -3.8500  -27.2470 C   0  0  0  0  0  3  0  0  0  0  0  0
    1.3970   -4.3600  -27.8570 C   0  0  0  0  0  3  0  0  0  0  0  0
    1.5730   -5.7370  -27.9880 C   0  0  0  0  0  0  0  0  0  0  0  0
    0.5500   -6.5960  -27.5630 C   0  0  0  0  0  3  0  0  0  0  0  0
    2.7050   -6.3310  -28.5770 N   0  0  0  0  0  0  0  0  0  0  0  0
    3.5490   -7.3260  -28.1420 C   0  0  0  0  0  0  0  0  0  0  0  0
    4.6500   -7.4770  -28.6700 O   0  0  0  0  0  0  0  0  0  0  0  0
    3.0080   -5.9430  -29.4640 H   0  0  0  0  0  0  0  0  0  0  0  0
    3.1300   -8.3020  -27.1130 C   0  0  0  0  0  0  0  0  0  0  0  0
    2.6170   -7.8280  -25.9040 C   0  0  0  0  0  3  0  0  0  0  0  0
    2.2330   -8.7320  -24.9140 C   0  0  0  0  0  3  0  0  0  0  0  0
    2.3740  -10.1100  -25.1190 C   0  0  0  0  0  0  0  0  0  0  0  0
    1.8610  -11.1600  -23.8480 Cl  0  0  0  0  0  0  0  0  0  0  0  0
    2.9180  -10.6020  -26.3140 C   0  0  0  0  0  0  0  0  0  0  0  0
    3.3060   -9.6790  -27.3070 C   0  0  0  0  0  3  0  0  0  0  0  0
    3.0860  -12.0780  -26.5550 C   0  0  0  0  0  0  0  0  0  0  0  0
    3.8900  -12.6820  -25.6380 F   0  0  0  0  0  0  0  0  0  0  0  0
    1.9050  -12.7550  -26.5410 F   0  0  0  0  0  0  0  0  0  0  0  0
    3.6470  -12.3580  -27.7670 F   0  0  0  0  0  0  0  0  0  0  0  0
   -1.6620   -7.0660  -26.4370 C   0  0  0  0  0  2  0  0  0  0  0  0
   -1.4640  -10.8610  -21.6640 C   0  0  0  0  0  0  0  0  0  0  0  0
   -1.5650   -9.9280  -20.6230 C   0  0  0  0  0  3  0  0  0  0  0  0
   -1.6430   -8.5790  -20.9240 C   0  0  0  0  0  3  0  0  0  0  0  0
   -1.5990   -8.1810  -22.2590 C   0  0  0  0  0  3  0  0  0  0  0  0
   -1.4790   -9.1280  -23.3120 C   0  0  0  0  0  0  0  0  0  0  0  0
   -1.4190   -8.7830  -24.6780 C   0  0  0  0  0  0  0  0  0  0  0  0
   -1.4300   -7.4420  -25.0550 N   0  0  0  0  0  0  0  0  0  0  0  0
   -1.3740   -9.7110  -25.6460 N   0  0  0  0  0  0  0  0  0  0  0  0
   -1.3490  -10.9870  -25.2540 C   0  0  0  0  0  3  0  0  0  0  0  0
   -1.3720  -11.4240  -23.9920 N   0  0  0  0  0  0  0  0  0  0  0  0
   -1.4300  -10.5010  -23.0170 C   0  0  0  0  0  0  0  0  0  0  0  0
   -0.8080   -6.8420  -24.5310 H   0  0  0  0  0  0  0  0  0  0  0  0
   -2.5620  -12.9440  -21.2020 N   0  0  0  0  0  0  0  0  0  0  0  0
   -1.3730  -12.2770  -21.2760 C   0  0  0  0  0  0  0  0  0  0  0  0
   -0.3080  -12.7870  -20.9630 O   0  0  0  0  0  0  0  0  0  0  0  0
   -2.5380  -13.9180  -20.9240 H   0  0  0  0  0  0  0  0  0  0  0  0
   -3.4460  -12.5320  -21.4650 H   0  0  0  0  0  0  0  0  0  0  0  0
  1  2  1  0  0  0  0
  1 22  1  0  0  0  0
  3  2  2  0  0  0  0
  4  3  1  0  0  0  0
  5  4  2  0  0  0  0
  5  6  1  0  0  0  0
  6  1  2  0  0  0  0
  7  8  1  0  0  0  0
  7  5  1  0  0  0  0
  8 11  1  0  0  0  0
  9  8  2  0  0  0  0
 10  7  1  0  0  0  0
 11 12  1  0  0  0  0
 12 13  2  0  0  0  0
 14 13  1  0  0  0  0
 14 15  1  0  0  0  0
 16 14  2  0  0  0  0
 17 11  2  0  0  0  0
 17 16  1  0  0  0  0
 18 20  1  0  0  0  0
 18 16  1  0  0  0  0
 18 19  1  0  0  0  0
 21 18  1  0  0  0  0
 22 29  1  0  0  0  0
 23 36  1  0  0  0  0
 23 24  1  0  0  0  0
 25 24  2  0  0  0  0
 26 25  1  0  0  0  0
 27 33  1  0  0  0  0
 27 26  2  0  0  0  0
 28 27  1  0  0  0  0
 29 28  1  0  0  0  0
 29 34  1  0  0  0  0
 30 31  1  0  0  0  0
 30 28  2  0  0  0  0
 31 32  2  0  0  0  0
 32 33  1  0  0  0  0
 33 23  2  0  0  0  0
 35 38  1  0  0  0  0
 36 35  1  0  0  0  0
 36 37  2  0  0  0  0
 39 35  1  0  0  0  0
M  END
>  <minimizedAffinity>
-10.0565319

$$$$
