
 OpenBabel10152419393D

 39 42  0  0  0  0  0  0  0  0999 V2000
   -0.3190   -6.4460  -25.5910 C   0  0  0  0  0  0  0  0  0  0  0  0
   -1.3690   -5.9540  -26.3790 C   0  0  0  0  0  3  0  0  0  0  0  0
   -1.1440   -5.5670  -27.6990 C   0  0  0  0  0  3  0  0  0  0  0  0
    0.1410   -5.6300  -28.2390 C   0  0  0  0  0  3  0  0  0  0  0  0
    1.2140   -6.0580  -27.4600 C   0  0  0  0  0  0  0  0  0  0  0  0
    0.9710   -6.4900  -26.1480 C   0  0  0  0  0  3  0  0  0  0  0  0
    2.5400   -6.1370  -27.9250 N   0  0  0  0  0  0  0  0  0  0  0  0
    3.5580   -7.0190  -27.6490 C   0  0  0  0  0  0  0  0  0  0  0  0
    4.7210   -6.7280  -27.9220 O   0  0  0  0  0  0  0  0  0  0  0  0
    2.8470   -5.3920  -28.5400 H   0  0  0  0  0  0  0  0  0  0  0  0
    3.2860   -8.3740  -27.1190 C   0  0  0  0  0  0  0  0  0  0  0  0
    2.6440   -8.4980  -25.8860 C   0  0  0  0  0  3  0  0  0  0  0  0
    2.3940   -9.7670  -25.3610 C   0  0  0  0  0  3  0  0  0  0  0  0
    2.7990  -10.9130  -26.0560 C   0  0  0  0  0  0  0  0  0  0  0  0
    2.4380  -12.4440  -25.3430 Cl  0  0  0  0  0  0  0  0  0  0  0  0
    3.4730  -10.8050  -27.2800 C   0  0  0  0  0  0  0  0  0  0  0  0
    3.7230   -9.5190  -27.7990 C   0  0  0  0  0  3  0  0  0  0  0  0
    3.9240  -12.0230  -28.0420 C   0  0  0  0  0  0  0  0  0  0  0  0
    4.6190  -11.7210  -29.1730 F   0  0  0  0  0  0  0  0  0  0  0  0
    4.7200  -12.8440  -27.3050 F   0  0  0  0  0  0  0  0  0  0  0  0
    2.8850  -12.8050  -28.4560 F   0  0  0  0  0  0  0  0  0  0  0  0
   -0.5230   -6.8430  -24.1430 C   0  0  0  0  0  2  0  0  0  0  0  0
   -1.4530  -12.0180  -21.0480 C   0  0  0  0  0  0  0  0  0  0  0  0
   -0.7970  -12.9180  -21.9000 C   0  0  0  0  0  3  0  0  0  0  0  0
   -0.2200  -12.4500  -23.0680 C   0  0  0  0  0  3  0  0  0  0  0  0
   -0.3230  -11.0950  -23.3760 C   0  0  0  0  0  3  0  0  0  0  0  0
   -1.0050  -10.1880  -22.5210 C   0  0  0  0  0  0  0  0  0  0  0  0
   -1.1500   -8.8110  -22.7870 C   0  0  0  0  0  0  0  0  0  0  0  0
   -0.6490   -8.2790  -23.9730 N   0  0  0  0  0  0  0  0  0  0  0  0
   -1.7410   -7.9760  -21.9210 N   0  0  0  0  0  0  0  0  0  0  0  0
   -2.2260   -8.5170  -20.8010 C   0  0  0  0  0  3  0  0  0  0  0  0
   -2.1700   -9.8070  -20.4610 N   0  0  0  0  0  0  0  0  0  0  0  0
   -1.5680  -10.6480  -21.3180 C   0  0  0  0  0  0  0  0  0  0  0  0
   -0.8650   -8.8070  -24.8080 H   0  0  0  0  0  0  0  0  0  0  0  0
   -3.3970  -12.8270  -19.8950 N   0  0  0  0  0  0  0  0  0  0  0  0
   -2.0560  -12.5800  -19.8290 C   0  0  0  0  0  0  0  0  0  0  0  0
   -1.4050  -12.7320  -18.8060 O   0  0  0  0  0  0  0  0  0  0  0  0
   -3.8470  -13.2020  -19.0700 H   0  0  0  0  0  0  0  0  0  0  0  0
   -3.9400  -12.7110  -20.7390 H   0  0  0  0  0  0  0  0  0  0  0  0
  1 22  1  0  0  0  0
  2  1  2  0  0  0  0
  3  2  1  0  0  0  0
  4  3  2  0  0  0  0
  4  5  1  0  0  0  0
  5  6  2  0  0  0  0
  6  1  1  0  0  0  0
  7  8  1  0  0  0  0
  7  5  1  0  0  0  0
  8 11  1  0  0  0  0
  9  8  2  0  0  0  0
 10  7  1  0  0  0  0
 11 12  1  0  0  0  0
 12 13  2  0  0  0  0
 14 13  1  0  0  0  0
 14 15  1  0  0  0  0
 16 14  2  0  0  0  0
 17 16  1  0  0  0  0
 17 11  2  0  0  0  0
 18 20  1  0  0  0  0
 18 16  1  0  0  0  0
 19 18  1  0  0  0  0
 21 18  1  0  0  0  0
 22 29  1  0  0  0  0
 23 36  1  0  0  0  0
 24 23  2  0  0  0  0
 25 24  1  0  0  0  0
 26 25  2  0  0  0  0
 26 27  1  0  0  0  0
 27 33  1  0  0  0  0
 28 27  2  0  0  0  0
 28 30  1  0  0  0  0
 29 28  1  0  0  0  0
 30 31  2  0  0  0  0
 31 32  1  0  0  0  0
 33 23  1  0  0  0  0
 33 32  2  0  0  0  0
 34 29  1  0  0  0  0
 35 36  1  0  0  0  0
 35 38  1  0  0  0  0
 36 37  2  0  0  0  0
 39 35  1  0  0  0  0
M  END
>  <minimizedAffinity>
-9.35689259

$$$$
