
 OpenBabel10152419393D

 39 42  0  0  0  0  0  0  0  0999 V2000
   -0.5850   -5.1880  -26.8340 C   0  0  0  0  0  0  0  0  0  0  0  0
   -0.3170   -3.8220  -26.6760 C   0  0  0  0  0  3  0  0  0  0  0  0
    0.7310   -3.2190  -27.3690 C   0  0  0  0  0  3  0  0  0  0  0  0
    1.5520   -3.9820  -28.2010 C   0  0  0  0  0  3  0  0  0  0  0  0
    1.3460   -5.3550  -28.3300 C   0  0  0  0  0  0  0  0  0  0  0  0
    0.2610   -5.9430  -27.6670 C   0  0  0  0  0  3  0  0  0  0  0  0
    2.1360   -6.1950  -29.1370 N   0  0  0  0  0  0  0  0  0  0  0  0
    2.9570   -7.2540  -28.8290 C   0  0  0  0  0  0  0  0  0  0  0  0
    3.7900   -7.6490  -29.6440 O   0  0  0  0  0  0  0  0  0  0  0  0
    2.1650   -5.9730  -30.1260 H   0  0  0  0  0  0  0  0  0  0  0  0
    2.8000   -8.0150  -27.5700 C   0  0  0  0  0  0  0  0  0  0  0  0
    2.2900   -7.3610  -26.4470 C   0  0  0  0  0  3  0  0  0  0  0  0
    2.1510   -8.0560  -25.2450 C   0  0  0  0  0  3  0  0  0  0  0  0
    2.5350   -9.4000  -25.1560 C   0  0  0  0  0  0  0  0  0  0  0  0
    2.3160  -10.1890  -23.6360 Cl  0  0  0  0  0  0  0  0  0  0  0  0
    3.0790  -10.0620  -26.2650 C   0  0  0  0  0  0  0  0  0  0  0  0
    3.2180   -9.3490  -27.4730 C   0  0  0  0  0  3  0  0  0  0  0  0
    3.5060  -11.5040  -26.1910 C   0  0  0  0  0  0  0  0  0  0  0  0
    2.6480  -12.2810  -25.4750 F   0  0  0  0  0  0  0  0  0  0  0  0
    3.6250  -12.0840  -27.4160 F   0  0  0  0  0  0  0  0  0  0  0  0
    4.7220  -11.6670  -25.5940 F   0  0  0  0  0  0  0  0  0  0  0  0
   -1.6950   -5.8800  -26.0700 C   0  0  0  0  0  2  0  0  0  0  0  0
   -0.8270  -11.4650  -23.7730 C   0  0  0  0  0  0  0  0  0  0  0  0
   -0.4280  -12.1350  -24.9390 C   0  0  0  0  0  3  0  0  0  0  0  0
   -0.3750  -11.4420  -26.1360 C   0  0  0  0  0  3  0  0  0  0  0  0
   -0.7400  -10.0970  -26.1550 C   0  0  0  0  0  3  0  0  0  0  0  0
   -1.1620   -9.4260  -24.9760 C   0  0  0  0  0  0  0  0  0  0  0  0
   -1.5520   -8.0710  -24.9380 C   0  0  0  0  0  0  0  0  0  0  0  0
   -1.5840   -7.3270  -26.1150 N   0  0  0  0  0  0  0  0  0  0  0  0
   -1.8780   -7.4560  -23.7910 N   0  0  0  0  0  0  0  0  0  0  0  0
   -1.8540   -8.1990  -22.6830 C   0  0  0  0  0  3  0  0  0  0  0  0
   -1.5300   -9.4920  -22.6090 N   0  0  0  0  0  0  0  0  0  0  0  0
   -1.1890  -10.1130  -23.7510 C   0  0  0  0  0  0  0  0  0  0  0  0
   -2.0270   -7.7810  -26.9010 H   0  0  0  0  0  0  0  0  0  0  0  0
   -2.0660  -12.2470  -21.8730 N   0  0  0  0  0  0  0  0  0  0  0  0
   -0.8730  -12.2610  -22.5370 C   0  0  0  0  0  0  0  0  0  0  0  0
    0.1200  -12.8230  -22.1000 O   0  0  0  0  0  0  0  0  0  0  0  0
   -2.1300  -12.7730  -21.0100 H   0  0  0  0  0  0  0  0  0  0  0  0
   -2.8940  -11.7910  -22.2300 H   0  0  0  0  0  0  0  0  0  0  0  0
  1  2  1  0  0  0  0
  1 22  1  0  0  0  0
  3  2  2  0  0  0  0
  4  3  1  0  0  0  0
  5  4  2  0  0  0  0
  5  6  1  0  0  0  0
  6  1  2  0  0  0  0
  7  8  1  0  0  0  0
  7  5  1  0  0  0  0
  8 11  1  0  0  0  0
  9  8  2  0  0  0  0
 10  7  1  0  0  0  0
 11 17  2  0  0  0  0
 11 12  1  0  0  0  0
 12 13  2  0  0  0  0
 13 14  1  0  0  0  0
 14 15  1  0  0  0  0
 16 18  1  0  0  0  0
 16 14  2  0  0  0  0
 17 16  1  0  0  0  0
 18 21  1  0  0  0  0
 18 19  1  0  0  0  0
 20 18  1  0  0  0  0
 23 33  1  0  0  0  0
 23 36  1  0  0  0  0
 24 23  2  0  0  0  0
 25 24  1  0  0  0  0
 26 25  2  0  0  0  0
 26 27  1  0  0  0  0
 27 28  2  0  0  0  0
 27 33  1  0  0  0  0
 28 30  1  0  0  0  0
 29 22  1  0  0  0  0
 29 28  1  0  0  0  0
 30 31  2  0  0  0  0
 31 32  1  0  0  0  0
 33 32  2  0  0  0  0
 34 29  1  0  0  0  0
 35 38  1  0  0  0  0
 36 37  2  0  0  0  0
 36 35  1  0  0  0  0
 39 35  1  0  0  0  0
M  END
>  <minimizedAffinity>
-9.07021332

$$$$
