REMARK  Name = 
REMARK  6 active torsions:
REMARK  status: ('A' for Active; 'I' for Inactive)
REMARK    1  A    between atoms: C_3  and  C_5
REMARK    2  A    between atoms: C_5  and  C_6
REMARK    3  A    between atoms: C_6  and  C_7
REMARK    4  A    between atoms: C_11  and  N_12
REMARK    5  A    between atoms: C_21  and  O_22
REMARK    6  A    between atoms: O_22  and  C_23
REMARK                            x       y       z     vdW  Elec       q    Type
REMARK                         _______ _______ _______ _____ _____    ______ ____
ROOT
ATOM      1 CL   UNL     1       0.922  -0.041  -0.048  0.00  0.00    -0.145 Cl
ATOM      2  H   UNL     1       2.252  -0.041  -0.048  0.00  0.00    +0.145 HD
ENDROOT
TORSDOF 0
REMARK  Name = 
REMARK  6 active torsions:
REMARK  status: ('A' for Active; 'I' for Inactive)
REMARK    1  A    between atoms: C_3  and  C_5
REMARK    2  A    between atoms: C_5  and  C_6
REMARK    3  A    between atoms: C_6  and  C_7
REMARK    4  A    between atoms: C_11  and  N_12
REMARK    5  A    between atoms: C_21  and  O_22
REMARK    6  A    between atoms: O_22  and  C_23
REMARK                            x       y       z     vdW  Elec       q    Type
REMARK                         _______ _______ _______ _____ _____    ______ ____
ROOT
ATOM      1  C   UNL     1       3.080   1.197  -0.337  0.00  0.00    +0.016 C 
ATOM      2  C   UNL     1       2.273   2.468  -0.046  0.00  0.00    +0.017 C 
ATOM      3  C   UNL     1       3.119   3.725  -0.215  0.00  0.00    +0.045 C 
ATOM      4  C   UNL     1       4.361   3.676   0.661  0.00  0.00    +0.174 C 
ATOM      5  C   UNL     1       5.166   2.419   0.355  0.00  0.00    +0.045 C 
ATOM      6  C   UNL     1       4.329   1.161   0.540  0.00  0.00    +0.017 C 
ENDROOT
BRANCH   1   8
ATOM      7  O   UNL     1       3.403   0.184  -2.511  0.00  0.00    -0.549 OA
ATOM      8  C   UNL     1       3.400   1.252  -1.822  0.00  0.00    +0.048 C 
ATOM      9  O   UNL     1       3.690   2.497  -2.440  0.00  0.00    -0.549 OA
ENDBRANCH   1   8
BRANCH   1  10
ATOM     10  C   UNL     1       2.320  -0.083  -0.027  0.00  0.00    +0.068 C 
BRANCH  10  11
ATOM     11  C   UNL     1       1.034  -0.747  -0.490  0.00  0.00    +0.044 A 
ATOM     12  C   UNL     1       0.585  -0.584  -1.786  0.00  0.00    +0.023 A 
ATOM     13  C   UNL     1      -0.625  -1.166  -2.172  0.00  0.00    +0.005 A 
ATOM     14  C   UNL     1      -1.317  -1.905  -1.221  0.00  0.00    +0.044 A 
ATOM     15  C   UNL     1      -0.786  -2.037   0.042  0.00  0.00    +0.125 A 
ATOM     16  N   UNL     1       0.361  -1.465   0.423  0.00  0.00    -0.237 NA
BRANCH  15  17
ATOM     17  N   UNL     1      -1.518  -2.850   1.024  0.00  0.00    -0.279 N 
ATOM     18  C   UNL     1      -0.985  -3.016   2.383  0.00  0.00    +0.163 A 
ATOM     19  N   UNL     1      -0.768  -2.031   3.206  0.00  0.00    -0.233 NA
ATOM     20  C   UNL     1      -0.304  -2.463   4.438  0.00  0.00    +0.120 A 
ATOM     21  C   UNL     1      -0.148  -3.822   4.520  0.00  0.00    +0.068 A 
ATOM     22  S   UNL     1      -0.615  -4.582   3.021  0.00  0.00    -0.061 S 
ATOM     23  H   UNL     1      -2.396  -3.298   0.761  0.00  0.00    +0.155 HD
ENDBRANCH  15  17
ENDBRANCH  10  11
ENDBRANCH   1  10
BRANCH   4  24
ATOM     24  O   UNL     1       3.969   3.657   2.025  0.00  0.00    -0.489 OA
BRANCH  24  25
ATOM     25  C   UNL     1       3.158   2.600   2.517  0.00  0.00    +0.122 A 
ATOM     26  C   UNL     1       3.558   1.274   2.474  0.00  0.00    +0.046 A 
ATOM     27  C   UNL     1       2.713   0.269   2.931  0.00  0.00    +0.005 A 
ATOM     28  C   UNL     1       1.449   0.593   3.414  0.00  0.00    +0.020 A 
ATOM     29  C   UNL     1       1.055   1.920   3.420  0.00  0.00    +0.044 A 
ATOM     30 CL   UNL     1      -0.531   2.311   4.009  0.00  0.00    -0.083 Cl
ATOM     31  C   UNL     1       1.898   2.942   3.006  0.00  0.00    +0.065 A 
ENDBRANCH  24  25
ENDBRANCH   4  24
TORSDOF 6
