
 OpenBabel10152419383D

 39 42  0  0  1  0  0  0  0  0999 V2000
    1.8330  -12.0790  -24.7810 C   0  0  0  0  0  0  0  0  0  0  0  0
    1.3530  -11.9200  -26.0850 C   0  0  0  0  0  3  0  0  0  0  0  0
   -0.0140  -12.0060  -26.3410 C   0  0  0  0  0  3  0  0  0  0  0  0
   -0.9230  -12.1980  -25.2950 C   0  0  0  0  0  3  0  0  0  0  0  0
   -0.4730  -12.3750  -23.9890 C   0  0  0  0  0  0  0  0  0  0  0  0
    0.9070  -12.3770  -23.7620 C   0  0  0  0  0  3  0  0  0  0  0  0
   -1.2810  -12.4290  -22.8340 N   0  0  0  0  0  0  0  0  0  0  0  0
   -1.6840  -11.4850  -21.9230 C   0  0  0  0  0  0  0  0  0  0  0  0
   -2.1790  -11.8210  -20.8500 O   0  0  0  0  0  0  0  0  0  0  0  0
   -1.5610  -13.3570  -22.5300 H   0  0  0  0  0  0  0  0  0  0  0  0
   -1.6130  -10.0630  -22.2390 C   0  0  0  0  0  0  0  0  0  0  0  0
   -1.7380   -9.6240  -23.5550 C   0  0  0  0  0  3  0  0  0  0  0  0
   -1.5790   -8.2690  -23.8260 C   0  0  0  0  0  3  0  0  0  0  0  0
   -1.2950   -7.3900  -22.7750 C   0  0  0  0  0  0  0  0  0  0  0  0
   -1.2250   -7.8180  -21.4760 N   0  0  0  0  0  0  0  0  0  0  0  0
   -1.4030   -9.1390  -21.2320 C   0  0  0  0  0  3  0  0  0  0  0  0
   -1.0500   -5.9170  -23.0830 C   0  0  0  0  0  0  0  0  0  0  0  0
   -1.3900   -5.5720  -24.3560 F   0  0  0  0  0  0  0  0  0  0  0  0
   -1.7370   -5.0710  -22.2610 F   0  0  0  0  0  0  0  0  0  0  0  0
    0.2630   -5.5590  -22.9470 F   0  0  0  0  0  0  0  0  0  0  0  0
    3.8950  -12.9070  -23.5560 C   0  0  0  0  0  1  0  0  0  0  0  0
    3.2780  -11.7780  -24.3940 C   0  0  1  0  0  3  0  0  0  0  0  0
    4.1410  -11.5360  -25.5640 N   0  0  0  0  0  0  0  0  0  0  0  0
    4.2030  -12.3370  -26.1870 H   0  0  0  0  0  0  0  0  0  0  0  0
    4.0100  -10.4170  -26.3740 C   0  0  0  0  0  0  0  0  0  0  0  0
    4.6980  -10.5400  -27.5180 N   0  0  0  0  0  0  0  0  0  0  0  0
    4.4650   -9.6190  -28.4480 C   0  0  0  0  0  3  0  0  0  0  0  0
    3.6070   -8.5990  -28.3490 N   0  0  0  0  0  0  0  0  0  0  0  0
    2.9570   -8.4290  -27.1750 C   0  0  0  0  0  0  0  0  0  0  0  0
    2.0250   -7.3880  -26.9770 C   0  0  0  0  0  0  0  0  0  0  0  0
    1.4010   -7.1910  -25.7290 C   0  0  0  0  0  3  0  0  0  0  0  0
    1.7100   -8.0040  -24.6500 C   0  0  0  0  0  3  0  0  0  0  0  0
    2.6050   -9.0480  -24.8330 C   0  0  0  0  0  3  0  0  0  0  0  0
    3.1900   -9.3070  -26.0990 C   0  0  0  0  0  0  0  0  0  0  0  0
    1.6220   -6.4320  -28.0570 C   0  0  0  0  0  0  0  0  0  0  0  0
    2.5690   -6.0140  -28.9440 N   0  0  0  0  0  0  0  0  0  0  0  0
    0.4690   -6.0270  -28.1600 O   0  0  0  0  0  0  0  0  0  0  0  0
    2.3050   -5.3700  -29.6760 H   0  0  0  0  0  0  0  0  0  0  0  0
    3.5310   -6.3290  -28.8650 H   0  0  0  0  0  0  0  0  0  0  0  0
  1 22  1  0  0  0  0
  1  6  1  0  0  0  0
  2  1  2  0  0  0  0
  3  2  1  0  0  0  0
  3  4  2  0  0  0  0
  4  5  1  0  0  0  0
  5  6  2  0  0  0  0
  5  7  1  0  0  0  0
  7 10  1  0  0  0  0
  7  8  1  0  0  0  0
  8  9  2  0  0  0  0
 11  8  1  0  0  0  0
 11 16  1  0  0  0  0
 12 11  2  0  0  0  0
 13 12  1  0  0  0  0
 13 14  2  0  0  0  0
 14 15  1  0  0  0  0
 15 16  2  0  0  0  0
 17 20  1  0  0  0  0
 17 14  1  0  0  0  0
 17 19  1  0  0  0  0
 18 17  1  0  0  0  0
 22 21  1  6  0  0  0
 23 22  1  0  0  0  0
 24 23  1  0  0  0  0
 25 34  1  0  0  0  0
 25 23  1  0  0  0  0
 26 25  2  0  0  0  0
 27 28  2  0  0  0  0
 27 26  1  0  0  0  0
 28 29  1  0  0  0  0
 29 30  2  0  0  0  0
 29 34  1  0  0  0  0
 30 31  1  0  0  0  0
 31 32  2  0  0  0  0
 33 32  1  0  0  0  0
 34 33  2  0  0  0  0
 35 30  1  0  0  0  0
 36 39  1  0  0  0  0
 36 35  1  0  0  0  0
 37 35  2  0  0  0  0
 38 36  1  0  0  0  0
M  END
>  <minimizedAffinity>
-7.34042025

$$$$
