
 OpenBabel10152419383D

 39 42  0  0  1  0  0  0  0  0999 V2000
    0.4360   -5.9360  -27.1910 C   0  0  0  0  0  0  0  0  0  0  0  0
    0.2280   -5.3440  -25.9400 C   0  0  0  0  0  3  0  0  0  0  0  0
   -0.5270   -6.0040  -24.9730 C   0  0  0  0  0  3  0  0  0  0  0  0
   -1.0390   -7.2830  -25.2200 C   0  0  0  0  0  3  0  0  0  0  0  0
   -0.8610   -7.8890  -26.4610 C   0  0  0  0  0  0  0  0  0  0  0  0
   -0.1790   -7.1750  -27.4520 C   0  0  0  0  0  3  0  0  0  0  0  0
   -1.1950   -9.2200  -26.7890 N   0  0  0  0  0  0  0  0  0  0  0  0
   -1.1620  -10.3980  -26.0850 C   0  0  0  0  0  0  0  0  0  0  0  0
   -1.2580  -11.4770  -26.6650 O   0  0  0  0  0  0  0  0  0  0  0  0
   -1.4180   -9.3950  -27.7640 H   0  0  0  0  0  0  0  0  0  0  0  0
   -1.0980  -10.3970  -24.6290 C   0  0  0  0  0  0  0  0  0  0  0  0
   -0.1780  -11.2010  -23.9600 C   0  0  0  0  0  3  0  0  0  0  0  0
   -0.2070  -11.2370  -22.5700 C   0  0  0  0  0  3  0  0  0  0  0  0
   -1.1570  -10.4710  -21.8860 C   0  0  0  0  0  0  0  0  0  0  0  0
   -2.0250   -9.6410  -22.5450 N   0  0  0  0  0  0  0  0  0  0  0  0
   -1.9660   -9.6070  -23.8980 C   0  0  0  0  0  3  0  0  0  0  0  0
   -1.2350  -10.5660  -20.3650 C   0  0  0  0  0  0  0  0  0  0  0  0
   -1.0190   -9.3730  -19.7440 F   0  0  0  0  0  0  0  0  0  0  0  0
   -2.4380  -11.0220  -19.9120 F   0  0  0  0  0  0  0  0  0  0  0  0
   -0.3070  -11.4230  -19.8410 F   0  0  0  0  0  0  0  0  0  0  0  0
    1.3400   -3.8520  -28.3200 C   0  0  0  0  0  1  0  0  0  0  0  0
    1.4280   -5.3800  -28.2090 C   0  0  1  0  0  3  0  0  0  0  0  0
    2.8220   -5.7500  -27.9040 N   0  0  0  0  0  0  0  0  0  0  0  0
    3.1900   -5.2770  -27.0820 H   0  0  0  0  0  0  0  0  0  0  0  0
    3.2470   -7.0680  -27.8220 C   0  0  0  0  0  0  0  0  0  0  0  0
    3.1530   -7.5510  -26.5750 N   0  0  0  0  0  0  0  0  0  0  0  0
    3.3330   -8.8620  -26.4350 C   0  0  0  0  0  3  0  0  0  0  0  0
    3.5850   -9.7320  -27.4190 N   0  0  0  0  0  0  0  0  0  0  0  0
    3.7460   -9.2450  -28.6700 C   0  0  0  0  0  0  0  0  0  0  0  0
    4.0050  -10.0840  -29.7750 C   0  0  0  0  0  0  0  0  0  0  0  0
    4.2270   -9.5540  -31.0610 C   0  0  0  0  0  3  0  0  0  0  0  0
    4.2240   -8.1840  -31.2700 C   0  0  0  0  0  3  0  0  0  0  0  0
    3.9470   -7.3440  -30.2000 C   0  0  0  0  0  3  0  0  0  0  0  0
    3.6500   -7.8610  -28.9130 C   0  0  0  0  0  0  0  0  0  0  0  0
    4.0530  -11.5770  -29.6760 C   0  0  0  0  0  0  0  0  0  0  0  0
    3.3280  -12.1890  -28.6970 N   0  0  0  0  0  0  0  0  0  0  0  0
    4.7200  -12.2530  -30.4530 O   0  0  0  0  0  0  0  0  0  0  0  0
    3.3550  -13.1960  -28.6230 H   0  0  0  0  0  0  0  0  0  0  0  0
    2.7820  -11.6440  -28.0370 H   0  0  0  0  0  0  0  0  0  0  0  0
  1  2  1  0  0  0  0
  2  3  2  0  0  0  0
  4  3  1  0  0  0  0
  5  4  2  0  0  0  0
  6  1  2  0  0  0  0
  6  5  1  0  0  0  0
  7  5  1  0  0  0  0
  7  8  1  0  0  0  0
  8 11  1  0  0  0  0
  9  8  2  0  0  0  0
 10  7  1  0  0  0  0
 11 12  2  0  0  0  0
 11 16  1  0  0  0  0
 12 13  1  0  0  0  0
 13 14  2  0  0  0  0
 14 17  1  0  0  0  0
 15 14  1  0  0  0  0
 16 15  2  0  0  0  0
 17 19  1  0  0  0  0
 17 20  1  0  0  0  0
 17 18  1  0  0  0  0
 22 21  1  1  0  0  0
 22 23  1  0  0  0  0
 22  1  1  0  0  0  0
 23 25  1  0  0  0  0
 23 24  1  0  0  0  0
 25 26  1  0  0  0  0
 26 27  2  0  0  0  0
 28 27  1  0  0  0  0
 29 28  2  0  0  0  0
 30 35  1  0  0  0  0
 30 29  1  0  0  0  0
 31 30  2  0  0  0  0
 32 31  1  0  0  0  0
 32 33  2  0  0  0  0
 33 34  1  0  0  0  0
 34 29  1  0  0  0  0
 34 25  2  0  0  0  0
 35 36  1  0  0  0  0
 36 38  1  0  0  0  0
 36 39  1  0  0  0  0
 37 35  2  0  0  0  0
M  END
>  <minimizedAffinity>
-7.49805641

$$$$
