
 OpenBabel10152419383D

 39 42  0  0  1  0  0  0  0  0999 V2000
    0.8730  -11.7030  -24.1850 C   0  0  0  0  0  0  0  0  0  0  0  0
    0.1300  -12.0400  -25.3200 C   0  0  0  0  0  3  0  0  0  0  0  0
   -1.2060  -11.6580  -25.4180 C   0  0  0  0  0  3  0  0  0  0  0  0
   -1.8030  -10.8900  -24.4120 C   0  0  0  0  0  3  0  0  0  0  0  0
   -1.0910  -10.5520  -23.2640 C   0  0  0  0  0  0  0  0  0  0  0  0
    0.2200  -11.0210  -23.1390 C   0  0  0  0  0  3  0  0  0  0  0  0
   -1.5220   -9.6680  -22.2530 N   0  0  0  0  0  0  0  0  0  0  0  0
   -1.5140   -8.3000  -22.1330 C   0  0  0  0  0  0  0  0  0  0  0  0
   -1.7090   -7.7650  -21.0450 O   0  0  0  0  0  0  0  0  0  0  0  0
   -1.8150  -10.0980  -21.3810 H   0  0  0  0  0  0  0  0  0  0  0  0
   -1.3600   -7.4490  -23.3070 C   0  0  0  0  0  0  0  0  0  0  0  0
   -1.7090   -7.9170  -24.5710 C   0  0  0  0  0  3  0  0  0  0  0  0
   -1.4670   -7.1060  -25.6750 C   0  0  0  0  0  3  0  0  0  0  0  0
   -0.8790   -5.8510  -25.4860 C   0  0  0  0  0  0  0  0  0  0  0  0
   -0.5870   -5.3720  -24.2360 N   0  0  0  0  0  0  0  0  0  0  0  0
   -0.8500   -6.1710  -23.1740 C   0  0  0  0  0  3  0  0  0  0  0  0
   -0.5490   -4.9920  -26.7020 C   0  0  0  0  0  0  0  0  0  0  0  0
   -0.8120   -5.6150  -27.8840 F   0  0  0  0  0  0  0  0  0  0  0  0
   -1.2310   -3.8110  -26.7310 F   0  0  0  0  0  0  0  0  0  0  0  0
    0.7720   -4.6430  -26.7600 F   0  0  0  0  0  0  0  0  0  0  0  0
    2.7800  -12.9470  -23.0650 C   0  0  0  0  0  1  0  0  0  0  0  0
    2.3860  -11.8890  -24.1060 C   0  0  1  0  0  3  0  0  0  0  0  0
    2.9800  -12.2610  -25.4030 N   0  0  0  0  0  0  0  0  0  0  0  0
    2.3870  -12.8790  -25.9510 H   0  0  0  0  0  0  0  0  0  0  0  0
    3.4970  -11.3250  -26.2870 C   0  0  0  0  0  0  0  0  0  0  0  0
    4.3410  -11.8790  -27.1690 N   0  0  0  0  0  0  0  0  0  0  0  0
    4.7200  -11.1090  -28.1850 C   0  0  0  0  0  3  0  0  0  0  0  0
    4.3280   -9.8500  -28.4090 N   0  0  0  0  0  0  0  0  0  0  0  0
    3.5290   -9.2620  -27.4900 C   0  0  0  0  0  0  0  0  0  0  0  0
    3.0570   -7.9410  -27.6410 C   0  0  0  0  0  0  0  0  0  0  0  0
    2.2720   -7.3250  -26.6470 C   0  0  0  0  0  3  0  0  0  0  0  0
    1.9660   -7.9960  -25.4730 C   0  0  0  0  0  3  0  0  0  0  0  0
    2.4020   -9.3050  -25.3180 C   0  0  0  0  0  3  0  0  0  0  0  0
    3.1310   -9.9670  -26.3380 C   0  0  0  0  0  0  0  0  0  0  0  0
    3.3340   -7.1050  -28.8530 C   0  0  0  0  0  0  0  0  0  0  0  0
    4.5710   -7.1740  -29.4220 N   0  0  0  0  0  0  0  0  0  0  0  0
    2.4790   -6.3720  -29.3390 O   0  0  0  0  0  0  0  0  0  0  0  0
    4.7670   -6.6140  -30.2400 H   0  0  0  0  0  0  0  0  0  0  0  0
    5.2940   -7.7650  -29.0250 H   0  0  0  0  0  0  0  0  0  0  0  0
  1 22  1  0  0  0  0
  1  6  1  0  0  0  0
  2  1  2  0  0  0  0
  3  2  1  0  0  0  0
  3  4  2  0  0  0  0
  4  5  1  0  0  0  0
  5  6  2  0  0  0  0
  5  7  1  0  0  0  0
  7  8  1  0  0  0  0
  7 10  1  0  0  0  0
  8  9  2  0  0  0  0
 11 16  1  0  0  0  0
 11  8  1  0  0  0  0
 12 11  2  0  0  0  0
 13 14  2  0  0  0  0
 13 12  1  0  0  0  0
 14 15  1  0  0  0  0
 15 16  2  0  0  0  0
 17 14  1  0  0  0  0
 18 17  1  0  0  0  0
 19 17  1  0  0  0  0
 20 17  1  0  0  0  0
 22 21  1  1  0  0  0
 23 22  1  0  0  0  0
 24 23  1  0  0  0  0
 25 23  1  0  0  0  0
 26 25  2  0  0  0  0
 27 26  1  0  0  0  0
 28 27  2  0  0  0  0
 28 29  1  0  0  0  0
 29 34  1  0  0  0  0
 30 29  2  0  0  0  0
 30 31  1  0  0  0  0
 31 32  2  0  0  0  0
 32 33  1  0  0  0  0
 34 25  1  0  0  0  0
 34 33  2  0  0  0  0
 35 30  1  0  0  0  0
 36 39  1  0  0  0  0
 36 35  1  0  0  0  0
 37 35  2  0  0  0  0
 38 36  1  0  0  0  0
M  END
>  <minimizedAffinity>
-9.44762897

$$$$

 OpenBabel10152419383D

 39 42  0  0  1  0  0  0  0  0999 V2000
   -0.5040  -11.9790  -23.4070 C   0  0  0  0  0  0  0  0  0  0  0  0
    0.0800  -12.8270  -22.4610 C   0  0  0  0  0  3  0  0  0  0  0  0
   -0.1870  -12.6490  -21.1050 C   0  0  0  0  0  3  0  0  0  0  0  0
   -1.0790  -11.6590  -20.6790 C   0  0  0  0  0  3  0  0  0  0  0  0
   -1.6640  -10.7900  -21.5980 C   0  0  0  0  0  0  0  0  0  0  0  0
   -1.3150  -10.9240  -22.9450 C   0  0  0  0  0  3  0  0  0  0  0  0
   -2.6820   -9.8540  -21.3210 N   0  0  0  0  0  0  0  0  0  0  0  0
   -2.8900   -8.5510  -21.7000 C   0  0  0  0  0  0  0  0  0  0  0  0
   -3.7220   -7.8570  -21.1220 O   0  0  0  0  0  0  0  0  0  0  0  0
   -3.3680  -10.1360  -20.6270 H   0  0  0  0  0  0  0  0  0  0  0  0
   -2.1930   -7.9870  -22.8490 C   0  0  0  0  0  0  0  0  0  0  0  0
   -1.1310   -7.1040  -22.6690 C   0  0  0  0  0  3  0  0  0  0  0  0
   -0.5490   -6.5210  -23.7890 C   0  0  0  0  0  3  0  0  0  0  0  0
   -1.0460   -6.8320  -25.0590 C   0  0  0  0  0  0  0  0  0  0  0  0
   -2.0550   -7.7420  -25.2350 N   0  0  0  0  0  0  0  0  0  0  0  0
   -2.5940   -8.3130  -24.1310 C   0  0  0  0  0  3  0  0  0  0  0  0
   -0.4540   -6.1390  -26.2810 C   0  0  0  0  0  0  0  0  0  0  0  0
   -1.3140   -5.2610  -26.8670 F   0  0  0  0  0  0  0  0  0  0  0  0
    0.6830   -5.4360  -26.0070 F   0  0  0  0  0  0  0  0  0  0  0  0
   -0.1010   -7.0170  -27.2680 F   0  0  0  0  0  0  0  0  0  0  0  0
   -0.6870  -10.9790  -25.7320 C   0  0  0  0  0  1  0  0  0  0  0  0
   -0.4380  -12.2500  -24.9080 C   0  0  1  0  0  3  0  0  0  0  0  0
    0.8490  -12.8360  -25.3220 N   0  0  0  0  0  0  0  0  0  0  0  0
    0.7460  -13.7290  -25.8000 H   0  0  0  0  0  0  0  0  0  0  0  0
    1.8060  -12.1210  -26.0270 C   0  0  0  0  0  0  0  0  0  0  0  0
    2.3070  -12.8250  -27.0520 N   0  0  0  0  0  0  0  0  0  0  0  0
    3.0700  -12.1550  -27.9110 C   0  0  0  0  0  3  0  0  0  0  0  0
    3.3680  -10.8530  -27.8500 N   0  0  0  0  0  0  0  0  0  0  0  0
    2.9210  -10.1490  -26.7850 C   0  0  0  0  0  0  0  0  0  0  0  0
    3.1760   -8.7700  -26.6370 C   0  0  0  0  0  0  0  0  0  0  0  0
    2.7510   -8.0650  -25.4930 C   0  0  0  0  0  3  0  0  0  0  0  0
    2.0930   -8.7210  -24.4640 C   0  0  0  0  0  3  0  0  0  0  0  0
    1.8120  -10.0730  -24.6040 C   0  0  0  0  0  3  0  0  0  0  0  0
    2.1670  -10.7840  -25.7790 C   0  0  0  0  0  0  0  0  0  0  0  0
    3.8930   -7.9530  -27.6670 C   0  0  0  0  0  0  0  0  0  0  0  0
    3.6060   -8.1650  -28.9820 N   0  0  0  0  0  0  0  0  0  0  0  0
    4.7210   -7.1040  -27.3530 O   0  0  0  0  0  0  0  0  0  0  0  0
    4.0850   -7.6190  -29.6840 H   0  0  0  0  0  0  0  0  0  0  0  0
    2.9330   -8.8730  -29.2600 H   0  0  0  0  0  0  0  0  0  0  0  0
  1  6  2  0  0  0  0
  1  2  1  0  0  0  0
  2  3  2  0  0  0  0
  3  4  1  0  0  0  0
  5  7  1  0  0  0  0
  5  4  2  0  0  0  0
  6  5  1  0  0  0  0
  7 10  1  0  0  0  0
  8  7  1  0  0  0  0
  8  9  2  0  0  0  0
 11 12  1  0  0  0  0
 11  8  1  0  0  0  0
 13 12  2  0  0  0  0
 14 13  1  0  0  0  0
 15 14  2  0  0  0  0
 15 16  1  0  0  0  0
 16 11  2  0  0  0  0
 17 19  1  0  0  0  0
 17 14  1  0  0  0  0
 18 17  1  0  0  0  0
 20 17  1  0  0  0  0
 22 21  1  6  0  0  0
 22  1  1  0  0  0  0
 23 22  1  0  0  0  0
 24 23  1  0  0  0  0
 25 34  1  0  0  0  0
 25 23  1  0  0  0  0
 26 25  2  0  0  0  0
 27 28  2  0  0  0  0
 27 26  1  0  0  0  0
 28 29  1  0  0  0  0
 29 30  2  0  0  0  0
 29 34  1  0  0  0  0
 30 31  1  0  0  0  0
 31 32  2  0  0  0  0
 33 32  1  0  0  0  0
 34 33  2  0  0  0  0
 35 37  2  0  0  0  0
 35 30  1  0  0  0  0
 36 35  1  0  0  0  0
 38 36  1  0  0  0  0
 39 36  1  0  0  0  0
M  END
>  <minimizedAffinity>
-8.76524639

$$$$

 OpenBabel10152419383D

 39 42  0  0  1  0  0  0  0  0999 V2000
    2.4310  -10.1830  -26.1000 C   0  0  0  0  0  0  0  0  0  0  0  0
    2.6650  -10.8740  -27.2930 C   0  0  0  0  0  3  0  0  0  0  0  0
    2.4960  -12.2570  -27.3430 C   0  0  0  0  0  3  0  0  0  0  0  0
    2.0410  -12.9590  -26.2210 C   0  0  0  0  0  3  0  0  0  0  0  0
    1.8150  -12.2990  -25.0160 C   0  0  0  0  0  0  0  0  0  0  0  0
    2.0780  -10.9260  -24.9570 C   0  0  0  0  0  3  0  0  0  0  0  0
    1.2230  -12.8560  -23.8640 N   0  0  0  0  0  0  0  0  0  0  0  0
    0.3770  -12.3550  -22.9050 C   0  0  0  0  0  0  0  0  0  0  0  0
    0.1990  -12.9590  -21.8500 O   0  0  0  0  0  0  0  0  0  0  0  0
    1.5380  -13.7860  -23.6070 H   0  0  0  0  0  0  0  0  0  0  0  0
   -0.3940  -11.1430  -23.1490 C   0  0  0  0  0  0  0  0  0  0  0  0
   -0.5290  -10.1780  -22.1530 C   0  0  0  0  0  3  0  0  0  0  0  0
   -1.3430   -9.0760  -22.3950 C   0  0  0  0  0  3  0  0  0  0  0  0
   -2.0040   -8.9710  -23.6230 C   0  0  0  0  0  0  0  0  0  0  0  0
   -1.8270   -9.8940  -24.6190 N   0  0  0  0  0  0  0  0  0  0  0  0
   -1.0140  -10.9490  -24.3700 C   0  0  0  0  0  3  0  0  0  0  0  0
   -2.9520   -7.8000  -23.8610 C   0  0  0  0  0  0  0  0  0  0  0  0
   -2.7330   -7.1670  -25.0460 F   0  0  0  0  0  0  0  0  0  0  0  0
   -4.2680   -8.1590  -23.8550 F   0  0  0  0  0  0  0  0  0  0  0  0
   -2.8430   -6.8290  -22.9040 F   0  0  0  0  0  0  0  0  0  0  0  0
    3.7540   -8.0250  -26.2780 C   0  0  0  0  0  1  0  0  0  0  0  0
    2.3780   -8.6590  -26.0290 C   0  0  1  0  0  3  0  0  0  0  0  0
    1.4140   -8.0800  -26.9810 N   0  0  0  0  0  0  0  0  0  0  0  0
    0.5010   -8.5280  -26.9480 H   0  0  0  0  0  0  0  0  0  0  0  0
    1.1790   -6.7160  -27.0750 C   0  0  0  0  0  0  0  0  0  0  0  0
    1.4920   -6.2330  -28.2850 N   0  0  0  0  0  0  0  0  0  0  0  0
    1.1040   -4.9870  -28.5420 C   0  0  0  0  0  3  0  0  0  0  0  0
    0.4250   -4.1870  -27.7130 N   0  0  0  0  0  0  0  0  0  0  0  0
    0.1610   -4.6420  -26.4670 C   0  0  0  0  0  0  0  0  0  0  0  0
   -0.5560   -3.8760  -25.5240 C   0  0  0  0  0  0  0  0  0  0  0  0
   -0.7730   -4.3430  -24.2130 C   0  0  0  0  0  3  0  0  0  0  0  0
   -0.2570   -5.5630  -23.8050 C   0  0  0  0  0  3  0  0  0  0  0  0
    0.4300   -6.3410  -24.7260 C   0  0  0  0  0  3  0  0  0  0  0  0
    0.5960   -5.9210  -26.0700 C   0  0  0  0  0  0  0  0  0  0  0  0
   -1.1460   -2.5350  -25.8360 C   0  0  0  0  0  0  0  0  0  0  0  0
   -0.6690   -1.8480  -26.9120 N   0  0  0  0  0  0  0  0  0  0  0  0
   -2.0430   -2.0520  -25.1530 O   0  0  0  0  0  0  0  0  0  0  0  0
   -1.0620   -0.9430  -27.1300 H   0  0  0  0  0  0  0  0  0  0  0  0
    0.0820   -2.2270  -27.4810 H   0  0  0  0  0  0  0  0  0  0  0  0
  1 22  1  0  0  0  0
  1  6  1  0  0  0  0
  2  1  2  0  0  0  0
  3  2  1  0  0  0  0
  3  4  2  0  0  0  0
  4  5  1  0  0  0  0
  5  6  2  0  0  0  0
  5  7  1  0  0  0  0
  7 10  1  0  0  0  0
  7  8  1  0  0  0  0
  8  9  2  0  0  0  0
 11  8  1  0  0  0  0
 11 12  1  0  0  0  0
 13 12  2  0  0  0  0
 14 13  1  0  0  0  0
 15 16  1  0  0  0  0
 15 14  2  0  0  0  0
 16 11  2  0  0  0  0
 17 19  1  0  0  0  0
 17 14  1  0  0  0  0
 17 20  1  0  0  0  0
 18 17  1  0  0  0  0
 22 21  1  6  0  0  0
 23 24  1  0  0  0  0
 23 22  1  0  0  0  0
 25 23  1  0  0  0  0
 25 34  1  0  0  0  0
 26 25  2  0  0  0  0
 27 26  1  0  0  0  0
 27 28  2  0  0  0  0
 28 29  1  0  0  0  0
 29 34  2  0  0  0  0
 29 30  1  0  0  0  0
 30 31  2  0  0  0  0
 31 32  1  0  0  0  0
 33 32  2  0  0  0  0
 34 33  1  0  0  0  0
 35 30  1  0  0  0  0
 35 37  2  0  0  0  0
 36 35  1  0  0  0  0
 38 36  1  0  0  0  0
 39 36  1  0  0  0  0
M  END
>  <minimizedAffinity>
-8.75858021

$$$$

 OpenBabel10152419383D

 39 42  0  0  1  0  0  0  0  0999 V2000
    4.3560   -9.9460  -27.6030 C   0  0  0  0  0  0  0  0  0  0  0  0
    4.4780  -10.6430  -28.8100 C   0  0  0  0  0  3  0  0  0  0  0  0
    4.5610  -12.0340  -28.8070 C   0  0  0  0  0  3  0  0  0  0  0  0
    4.4690  -12.7500  -27.6080 C   0  0  0  0  0  3  0  0  0  0  0  0
    4.3630  -12.0820  -26.3910 C   0  0  0  0  0  0  0  0  0  0  0  0
    4.3740  -10.6840  -26.4030 C   0  0  0  0  0  3  0  0  0  0  0  0
    4.1180  -12.6790  -25.1360 N   0  0  0  0  0  0  0  0  0  0  0  0
    3.1420  -12.5040  -24.1870 C   0  0  0  0  0  0  0  0  0  0  0  0
    3.2820  -12.9590  -23.0540 O   0  0  0  0  0  0  0  0  0  0  0  0
    4.8420  -13.3010  -24.7910 H   0  0  0  0  0  0  0  0  0  0  0  0
    1.8820  -11.8510  -24.5210 C   0  0  0  0  0  0  0  0  0  0  0  0
    1.0860  -12.3370  -25.5550 C   0  0  0  0  0  3  0  0  0  0  0  0
   -0.0650  -11.6350  -25.8990 C   0  0  0  0  0  3  0  0  0  0  0  0
   -0.3860  -10.4650  -25.2030 C   0  0  0  0  0  0  0  0  0  0  0  0
    0.3700  -10.0210  -24.1510 N   0  0  0  0  0  0  0  0  0  0  0  0
    1.4760  -10.7300  -23.8200 C   0  0  0  0  0  3  0  0  0  0  0  0
   -1.6090   -9.6580  -25.6270 C   0  0  0  0  0  0  0  0  0  0  0  0
   -2.2270   -9.0360  -24.5850 F   0  0  0  0  0  0  0  0  0  0  0  0
   -1.3250   -8.6860  -26.5400 F   0  0  0  0  0  0  0  0  0  0  0  0
   -2.5730  -10.4300  -26.2150 F   0  0  0  0  0  0  0  0  0  0  0  0
    4.7050   -7.6790  -28.6870 C   0  0  0  0  0  1  0  0  0  0  0  0
    4.0380   -8.4550  -27.5430 C   0  0  1  0  0  3  0  0  0  0  0  0
    2.5900   -8.1820  -27.5710 N   0  0  0  0  0  0  0  0  0  0  0  0
    2.0780   -8.6650  -26.8360 H   0  0  0  0  0  0  0  0  0  0  0  0
    2.0690   -6.8980  -27.6340 C   0  0  0  0  0  0  0  0  0  0  0  0
    2.3520   -6.2970  -28.7980 N   0  0  0  0  0  0  0  0  0  0  0  0
    1.7200   -5.1520  -29.0400 C   0  0  0  0  0  3  0  0  0  0  0  0
    0.8270   -4.5600  -28.2390 N   0  0  0  0  0  0  0  0  0  0  0  0
    0.5840   -5.1260  -27.0350 C   0  0  0  0  0  0  0  0  0  0  0  0
   -0.3470   -4.5810  -26.1240 C   0  0  0  0  0  0  0  0  0  0  0  0
   -0.5450   -5.1510  -24.8510 C   0  0  0  0  0  3  0  0  0  0  0  0
    0.1950   -6.2510  -24.4470 C   0  0  0  0  0  3  0  0  0  0  0  0
    1.0970   -6.8150  -25.3390 C   0  0  0  0  0  3  0  0  0  0  0  0
    1.2600   -6.3000  -26.6500 C   0  0  0  0  0  0  0  0  0  0  0  0
   -1.1920   -3.3850  -26.4340 C   0  0  0  0  0  0  0  0  0  0  0  0
   -0.6130   -2.1520  -26.4010 N   0  0  0  0  0  0  0  0  0  0  0  0
   -2.3810   -3.4930  -26.7180 O   0  0  0  0  0  0  0  0  0  0  0  0
   -1.1760   -1.3390  -26.6080 H   0  0  0  0  0  0  0  0  0  0  0  0
    0.3660   -2.0430  -26.1540 H   0  0  0  0  0  0  0  0  0  0  0  0
  1 22  1  0  0  0  0
  1  6  1  0  0  0  0
  2  3  1  0  0  0  0
  2  1  2  0  0  0  0
  3  4  2  0  0  0  0
  4  5  1  0  0  0  0
  5  7  1  0  0  0  0
  6  5  2  0  0  0  0
  7 10  1  0  0  0  0
  7  8  1  0  0  0  0
  8  9  2  0  0  0  0
 11  8  1  0  0  0  0
 11 16  1  0  0  0  0
 12 11  2  0  0  0  0
 13 12  1  0  0  0  0
 13 14  2  0  0  0  0
 14 15  1  0  0  0  0
 15 16  2  0  0  0  0
 17 14  1  0  0  0  0
 17 18  1  0  0  0  0
 19 17  1  0  0  0  0
 20 17  1  0  0  0  0
 22 21  1  6  0  0  0
 23 22  1  0  0  0  0
 23 24  1  0  0  0  0
 25 23  1  0  0  0  0
 25 34  1  0  0  0  0
 26 25  2  0  0  0  0
 27 26  1  0  0  0  0
 27 28  2  0  0  0  0
 28 29  1  0  0  0  0
 29 34  2  0  0  0  0
 29 30  1  0  0  0  0
 30 31  2  0  0  0  0
 31 32  1  0  0  0  0
 33 32  2  0  0  0  0
 34 33  1  0  0  0  0
 35 36  1  0  0  0  0
 35 30  1  0  0  0  0
 36 39  1  0  0  0  0
 37 35  2  0  0  0  0
 38 36  1  0  0  0  0
M  END
>  <minimizedAffinity>
-8.48975754

$$$$

 OpenBabel10152419383D

 39 42  0  0  1  0  0  0  0  0999 V2000
    0.2980   -5.5310  -27.3150 C   0  0  0  0  0  0  0  0  0  0  0  0
    0.0470   -4.8970  -26.0940 C   0  0  0  0  0  3  0  0  0  0  0  0
   -0.7260   -5.5320  -25.1240 C   0  0  0  0  0  3  0  0  0  0  0  0
   -1.2140   -6.8260  -25.3370 C   0  0  0  0  0  3  0  0  0  0  0  0
   -0.9930   -7.4750  -26.5500 C   0  0  0  0  0  0  0  0  0  0  0  0
   -0.2930   -6.7880  -27.5470 C   0  0  0  0  0  3  0  0  0  0  0  0
   -1.2990   -8.8220  -26.8370 N   0  0  0  0  0  0  0  0  0  0  0  0
   -1.2640   -9.9740  -26.0910 C   0  0  0  0  0  0  0  0  0  0  0  0
   -1.3320  -11.0730  -26.6340 O   0  0  0  0  0  0  0  0  0  0  0  0
   -1.4980   -9.0350  -27.8090 H   0  0  0  0  0  0  0  0  0  0  0  0
   -1.2330   -9.9200  -24.6340 C   0  0  0  0  0  0  0  0  0  0  0  0
   -0.3760  -10.7500  -23.9140 C   0  0  0  0  0  3  0  0  0  0  0  0
   -0.4370  -10.7290  -22.5250 C   0  0  0  0  0  3  0  0  0  0  0  0
   -1.3560   -9.8850  -21.8930 C   0  0  0  0  0  0  0  0  0  0  0  0
   -2.1580   -9.0320  -22.6030 N   0  0  0  0  0  0  0  0  0  0  0  0
   -2.0680   -9.0530  -23.9540 C   0  0  0  0  0  3  0  0  0  0  0  0
   -1.4720   -9.9160  -20.3720 C   0  0  0  0  0  0  0  0  0  0  0  0
   -0.2640   -9.9050  -19.7430 F   0  0  0  0  0  0  0  0  0  0  0  0
   -2.1790   -8.8660  -19.8620 F   0  0  0  0  0  0  0  0  0  0  0  0
   -2.1120  -11.0340  -19.9130 F   0  0  0  0  0  0  0  0  0  0  0  0
    1.4010   -3.4660  -28.2950 C   0  0  0  0  0  1  0  0  0  0  0  0
    1.3100   -4.9990  -28.3260 C   0  0  1  0  0  3  0  0  0  0  0  0
    2.6600   -5.5540  -28.1220 N   0  0  0  0  0  0  0  0  0  0  0  0
    3.0370   -5.3590  -27.1980 H   0  0  0  0  0  0  0  0  0  0  0  0
    2.9800   -6.8730  -28.4080 C   0  0  0  0  0  0  0  0  0  0  0  0
    3.4410   -7.0200  -29.6590 N   0  0  0  0  0  0  0  0  0  0  0  0
    3.9730   -8.2020  -29.9560 C   0  0  0  0  0  3  0  0  0  0  0  0
    4.0990   -9.2410  -29.1240 N   0  0  0  0  0  0  0  0  0  0  0  0
    3.5780   -9.1250  -27.8810 C   0  0  0  0  0  0  0  0  0  0  0  0
    3.6680  -10.1630  -26.9300 C   0  0  0  0  0  0  0  0  0  0  0  0
    3.0700  -10.0450  -25.6590 C   0  0  0  0  0  3  0  0  0  0  0  0
    2.3490   -8.9110  -25.3210 C   0  0  0  0  0  3  0  0  0  0  0  0
    2.2710   -7.8700  -26.2360 C   0  0  0  0  0  3  0  0  0  0  0  0
    2.9260   -7.9390  -27.4910 C   0  0  0  0  0  0  0  0  0  0  0  0
    4.4020  -11.4430  -27.1810 C   0  0  0  0  0  0  0  0  0  0  0  0
    4.7220  -11.7700  -28.4650 N   0  0  0  0  0  0  0  0  0  0  0  0
    4.7210  -12.1930  -26.2640 O   0  0  0  0  0  0  0  0  0  0  0  0
    5.2170  -12.6320  -28.6440 H   0  0  0  0  0  0  0  0  0  0  0  0
    4.4530  -11.1680  -29.2370 H   0  0  0  0  0  0  0  0  0  0  0  0
  1  2  1  0  0  0  0
  2  3  2  0  0  0  0
  4  3  1  0  0  0  0
  5  4  2  0  0  0  0
  6  1  2  0  0  0  0
  6  5  1  0  0  0  0
  7  5  1  0  0  0  0
  7  8  1  0  0  0  0
  8 11  1  0  0  0  0
  9  8  2  0  0  0  0
 10  7  1  0  0  0  0
 11 16  2  0  0  0  0
 11 12  1  0  0  0  0
 12 13  2  0  0  0  0
 13 14  1  0  0  0  0
 14 17  1  0  0  0  0
 15 14  2  0  0  0  0
 16 15  1  0  0  0  0
 17 20  1  0  0  0  0
 17 19  1  0  0  0  0
 17 18  1  0  0  0  0
 22 21  1  1  0  0  0
 22 23  1  0  0  0  0
 22  1  1  0  0  0  0
 23 24  1  0  0  0  0
 25 23  1  0  0  0  0
 25 34  1  0  0  0  0
 26 25  2  0  0  0  0
 27 26  1  0  0  0  0
 27 28  2  0  0  0  0
 28 29  1  0  0  0  0
 29 34  2  0  0  0  0
 29 30  1  0  0  0  0
 30 31  2  0  0  0  0
 31 32  1  0  0  0  0
 33 32  2  0  0  0  0
 34 33  1  0  0  0  0
 35 30  1  0  0  0  0
 35 37  2  0  0  0  0
 36 35  1  0  0  0  0
 38 36  1  0  0  0  0
 39 36  1  0  0  0  0
M  END
>  <minimizedAffinity>
-7.74213982

$$$$

 OpenBabel10152419383D

 39 42  0  0  1  0  0  0  0  0999 V2000
    2.3890  -10.8100  -25.9270 C   0  0  0  0  0  0  0  0  0  0  0  0
    1.7980  -11.2890  -27.1010 C   0  0  0  0  0  3  0  0  0  0  0  0
    0.9240  -12.3730  -27.0510 C   0  0  0  0  0  3  0  0  0  0  0  0
    0.5870  -12.9590  -25.8260 C   0  0  0  0  0  3  0  0  0  0  0  0
    1.1720  -12.5140  -24.6430 C   0  0  0  0  0  0  0  0  0  0  0  0
    2.1160  -11.4850  -24.7210 C   0  0  0  0  0  3  0  0  0  0  0  0
    0.8140  -12.9150  -23.3390 N   0  0  0  0  0  0  0  0  0  0  0  0
    0.1200  -12.3040  -22.3240 C   0  0  0  0  0  0  0  0  0  0  0  0
    0.1560  -12.7540  -21.1820 O   0  0  0  0  0  0  0  0  0  0  0  0
    1.2150  -13.7910  -23.0170 H   0  0  0  0  0  0  0  0  0  0  0  0
   -0.7420  -11.1600  -22.5920 C   0  0  0  0  0  0  0  0  0  0  0  0
   -1.2240  -10.9230  -23.8770 C   0  0  0  0  0  3  0  0  0  0  0  0
   -1.9730   -9.7730  -24.1090 C   0  0  0  0  0  3  0  0  0  0  0  0
   -2.2150   -8.8900  -23.0520 C   0  0  0  0  0  0  0  0  0  0  0  0
   -1.7840   -9.1530  -21.7780 N   0  0  0  0  0  0  0  0  0  0  0  0
   -1.0740  -10.2880  -21.5710 C   0  0  0  0  0  3  0  0  0  0  0  0
   -2.9750   -7.5950  -23.3220 C   0  0  0  0  0  0  0  0  0  0  0  0
   -2.5850   -6.5680  -22.5180 F   0  0  0  0  0  0  0  0  0  0  0  0
   -2.8430   -7.1490  -24.6040 F   0  0  0  0  0  0  0  0  0  0  0  0
   -4.3220   -7.7220  -23.1240 F   0  0  0  0  0  0  0  0  0  0  0  0
    4.6530   -9.7040  -26.2220 C   0  0  0  0  0  1  0  0  0  0  0  0
    3.1710   -9.5010  -25.8740 C   0  0  1  0  0  3  0  0  0  0  0  0
    2.6140   -8.4710  -26.7680 N   0  0  0  0  0  0  0  0  0  0  0  0
    2.3000   -8.8440  -27.6600 H   0  0  0  0  0  0  0  0  0  0  0  0
    1.6480   -7.5640  -26.3580 C   0  0  0  0  0  0  0  0  0  0  0  0
    1.2090   -7.8230  -25.1180 N   0  0  0  0  0  0  0  0  0  0  0  0
    0.4430   -6.8910  -24.5570 C   0  0  0  0  0  3  0  0  0  0  0  0
    0.0880   -5.7260  -25.1090 N   0  0  0  0  0  0  0  0  0  0  0  0
    0.4720   -5.4840  -26.3830 C   0  0  0  0  0  0  0  0  0  0  0  0
    0.1540   -4.2820  -27.0490 C   0  0  0  0  0  0  0  0  0  0  0  0
    0.5140   -4.0720  -28.3950 C   0  0  0  0  0  3  0  0  0  0  0  0
    1.1690   -5.0600  -29.1120 C   0  0  0  0  0  3  0  0  0  0  0  0
    1.5120   -6.2400  -28.4670 C   0  0  0  0  0  3  0  0  0  0  0  0
    1.2230   -6.4420  -27.0940 C   0  0  0  0  0  0  0  0  0  0  0  0
   -0.5670   -3.1470  -26.3900 C   0  0  0  0  0  0  0  0  0  0  0  0
   -0.1610   -1.8740  -26.6570 N   0  0  0  0  0  0  0  0  0  0  0  0
   -1.5090   -3.3390  -25.6270 O   0  0  0  0  0  0  0  0  0  0  0  0
   -0.6420   -1.1020  -26.2170 H   0  0  0  0  0  0  0  0  0  0  0  0
    0.6250   -1.6970  -27.2750 H   0  0  0  0  0  0  0  0  0  0  0  0
  1 22  1  0  0  0  0
  1  6  1  0  0  0  0
  2  3  1  0  0  0  0
  2  1  2  0  0  0  0
  3  4  2  0  0  0  0
  4  5  1  0  0  0  0
  5  7  1  0  0  0  0
  6  5  2  0  0  0  0
  7 10  1  0  0  0  0
  7  8  1  0  0  0  0
  8  9  2  0  0  0  0
 11  8  1  0  0  0  0
 11 16  1  0  0  0  0
 12 11  2  0  0  0  0
 13 12  1  0  0  0  0
 13 14  2  0  0  0  0
 14 15  1  0  0  0  0
 15 16  2  0  0  0  0
 17 20  1  0  0  0  0
 17 14  1  0  0  0  0
 17 18  1  0  0  0  0
 19 17  1  0  0  0  0
 22 21  1  6  0  0  0
 23 25  1  0  0  0  0
 23 22  1  0  0  0  0
 24 23  1  0  0  0  0
 25 26  1  0  0  0  0
 26 27  2  0  0  0  0
 28 27  1  0  0  0  0
 29 28  2  0  0  0  0
 30 35  1  0  0  0  0
 30 29  1  0  0  0  0
 31 30  2  0  0  0  0
 32 33  2  0  0  0  0
 32 31  1  0  0  0  0
 33 34  1  0  0  0  0
 34 29  1  0  0  0  0
 34 25  2  0  0  0  0
 35 37  2  0  0  0  0
 36 35  1  0  0  0  0
 36 38  1  0  0  0  0
 39 36  1  0  0  0  0
M  END
>  <minimizedAffinity>
-7.53460073

$$$$

 OpenBabel10152419383D

 39 42  0  0  1  0  0  0  0  0999 V2000
    0.4360   -5.9360  -27.1910 C   0  0  0  0  0  0  0  0  0  0  0  0
    0.2280   -5.3440  -25.9400 C   0  0  0  0  0  3  0  0  0  0  0  0
   -0.5270   -6.0040  -24.9730 C   0  0  0  0  0  3  0  0  0  0  0  0
   -1.0390   -7.2830  -25.2200 C   0  0  0  0  0  3  0  0  0  0  0  0
   -0.8610   -7.8890  -26.4610 C   0  0  0  0  0  0  0  0  0  0  0  0
   -0.1790   -7.1750  -27.4520 C   0  0  0  0  0  3  0  0  0  0  0  0
   -1.1950   -9.2200  -26.7890 N   0  0  0  0  0  0  0  0  0  0  0  0
   -1.1620  -10.3980  -26.0850 C   0  0  0  0  0  0  0  0  0  0  0  0
   -1.2580  -11.4770  -26.6650 O   0  0  0  0  0  0  0  0  0  0  0  0
   -1.4180   -9.3950  -27.7640 H   0  0  0  0  0  0  0  0  0  0  0  0
   -1.0980  -10.3970  -24.6290 C   0  0  0  0  0  0  0  0  0  0  0  0
   -0.1780  -11.2010  -23.9600 C   0  0  0  0  0  3  0  0  0  0  0  0
   -0.2070  -11.2370  -22.5700 C   0  0  0  0  0  3  0  0  0  0  0  0
   -1.1570  -10.4710  -21.8860 C   0  0  0  0  0  0  0  0  0  0  0  0
   -2.0250   -9.6410  -22.5450 N   0  0  0  0  0  0  0  0  0  0  0  0
   -1.9660   -9.6070  -23.8980 C   0  0  0  0  0  3  0  0  0  0  0  0
   -1.2350  -10.5660  -20.3650 C   0  0  0  0  0  0  0  0  0  0  0  0
   -1.0190   -9.3730  -19.7440 F   0  0  0  0  0  0  0  0  0  0  0  0
   -2.4380  -11.0220  -19.9120 F   0  0  0  0  0  0  0  0  0  0  0  0
   -0.3070  -11.4230  -19.8410 F   0  0  0  0  0  0  0  0  0  0  0  0
    1.3400   -3.8520  -28.3200 C   0  0  0  0  0  1  0  0  0  0  0  0
    1.4280   -5.3800  -28.2090 C   0  0  1  0  0  3  0  0  0  0  0  0
    2.8220   -5.7500  -27.9040 N   0  0  0  0  0  0  0  0  0  0  0  0
    3.1900   -5.2770  -27.0820 H   0  0  0  0  0  0  0  0  0  0  0  0
    3.2470   -7.0680  -27.8220 C   0  0  0  0  0  0  0  0  0  0  0  0
    3.1530   -7.5510  -26.5750 N   0  0  0  0  0  0  0  0  0  0  0  0
    3.3330   -8.8620  -26.4350 C   0  0  0  0  0  3  0  0  0  0  0  0
    3.5850   -9.7320  -27.4190 N   0  0  0  0  0  0  0  0  0  0  0  0
    3.7460   -9.2450  -28.6700 C   0  0  0  0  0  0  0  0  0  0  0  0
    4.0050  -10.0840  -29.7750 C   0  0  0  0  0  0  0  0  0  0  0  0
    4.2270   -9.5540  -31.0610 C   0  0  0  0  0  3  0  0  0  0  0  0
    4.2240   -8.1840  -31.2700 C   0  0  0  0  0  3  0  0  0  0  0  0
    3.9470   -7.3440  -30.2000 C   0  0  0  0  0  3  0  0  0  0  0  0
    3.6500   -7.8610  -28.9130 C   0  0  0  0  0  0  0  0  0  0  0  0
    4.0530  -11.5770  -29.6760 C   0  0  0  0  0  0  0  0  0  0  0  0
    3.3280  -12.1890  -28.6970 N   0  0  0  0  0  0  0  0  0  0  0  0
    4.7200  -12.2530  -30.4530 O   0  0  0  0  0  0  0  0  0  0  0  0
    3.3550  -13.1960  -28.6230 H   0  0  0  0  0  0  0  0  0  0  0  0
    2.7820  -11.6440  -28.0370 H   0  0  0  0  0  0  0  0  0  0  0  0
  1  2  1  0  0  0  0
  2  3  2  0  0  0  0
  4  3  1  0  0  0  0
  5  4  2  0  0  0  0
  6  1  2  0  0  0  0
  6  5  1  0  0  0  0
  7  5  1  0  0  0  0
  7  8  1  0  0  0  0
  8 11  1  0  0  0  0
  9  8  2  0  0  0  0
 10  7  1  0  0  0  0
 11 12  2  0  0  0  0
 11 16  1  0  0  0  0
 12 13  1  0  0  0  0
 13 14  2  0  0  0  0
 14 17  1  0  0  0  0
 15 14  1  0  0  0  0
 16 15  2  0  0  0  0
 17 19  1  0  0  0  0
 17 20  1  0  0  0  0
 17 18  1  0  0  0  0
 22 21  1  1  0  0  0
 22 23  1  0  0  0  0
 22  1  1  0  0  0  0
 23 25  1  0  0  0  0
 23 24  1  0  0  0  0
 25 26  1  0  0  0  0
 26 27  2  0  0  0  0
 28 27  1  0  0  0  0
 29 28  2  0  0  0  0
 30 35  1  0  0  0  0
 30 29  1  0  0  0  0
 31 30  2  0  0  0  0
 32 31  1  0  0  0  0
 32 33  2  0  0  0  0
 33 34  1  0  0  0  0
 34 29  1  0  0  0  0
 34 25  2  0  0  0  0
 35 36  1  0  0  0  0
 36 38  1  0  0  0  0
 36 39  1  0  0  0  0
 37 35  2  0  0  0  0
M  END
>  <minimizedAffinity>
-7.49805641

$$$$

 OpenBabel10152419383D

 39 42  0  0  1  0  0  0  0  0999 V2000
    1.8330  -12.0790  -24.7810 C   0  0  0  0  0  0  0  0  0  0  0  0
    1.3530  -11.9200  -26.0850 C   0  0  0  0  0  3  0  0  0  0  0  0
   -0.0140  -12.0060  -26.3410 C   0  0  0  0  0  3  0  0  0  0  0  0
   -0.9230  -12.1980  -25.2950 C   0  0  0  0  0  3  0  0  0  0  0  0
   -0.4730  -12.3750  -23.9890 C   0  0  0  0  0  0  0  0  0  0  0  0
    0.9070  -12.3770  -23.7620 C   0  0  0  0  0  3  0  0  0  0  0  0
   -1.2810  -12.4290  -22.8340 N   0  0  0  0  0  0  0  0  0  0  0  0
   -1.6840  -11.4850  -21.9230 C   0  0  0  0  0  0  0  0  0  0  0  0
   -2.1790  -11.8210  -20.8500 O   0  0  0  0  0  0  0  0  0  0  0  0
   -1.5610  -13.3570  -22.5300 H   0  0  0  0  0  0  0  0  0  0  0  0
   -1.6130  -10.0630  -22.2390 C   0  0  0  0  0  0  0  0  0  0  0  0
   -1.7380   -9.6240  -23.5550 C   0  0  0  0  0  3  0  0  0  0  0  0
   -1.5790   -8.2690  -23.8260 C   0  0  0  0  0  3  0  0  0  0  0  0
   -1.2950   -7.3900  -22.7750 C   0  0  0  0  0  0  0  0  0  0  0  0
   -1.2250   -7.8180  -21.4760 N   0  0  0  0  0  0  0  0  0  0  0  0
   -1.4030   -9.1390  -21.2320 C   0  0  0  0  0  3  0  0  0  0  0  0
   -1.0500   -5.9170  -23.0830 C   0  0  0  0  0  0  0  0  0  0  0  0
   -1.3900   -5.5720  -24.3560 F   0  0  0  0  0  0  0  0  0  0  0  0
   -1.7370   -5.0710  -22.2610 F   0  0  0  0  0  0  0  0  0  0  0  0
    0.2630   -5.5590  -22.9470 F   0  0  0  0  0  0  0  0  0  0  0  0
    3.8950  -12.9070  -23.5560 C   0  0  0  0  0  1  0  0  0  0  0  0
    3.2780  -11.7780  -24.3940 C   0  0  1  0  0  3  0  0  0  0  0  0
    4.1410  -11.5360  -25.5640 N   0  0  0  0  0  0  0  0  0  0  0  0
    4.2030  -12.3370  -26.1870 H   0  0  0  0  0  0  0  0  0  0  0  0
    4.0100  -10.4170  -26.3740 C   0  0  0  0  0  0  0  0  0  0  0  0
    4.6980  -10.5400  -27.5180 N   0  0  0  0  0  0  0  0  0  0  0  0
    4.4650   -9.6190  -28.4480 C   0  0  0  0  0  3  0  0  0  0  0  0
    3.6070   -8.5990  -28.3490 N   0  0  0  0  0  0  0  0  0  0  0  0
    2.9570   -8.4290  -27.1750 C   0  0  0  0  0  0  0  0  0  0  0  0
    2.0250   -7.3880  -26.9770 C   0  0  0  0  0  0  0  0  0  0  0  0
    1.4010   -7.1910  -25.7290 C   0  0  0  0  0  3  0  0  0  0  0  0
    1.7100   -8.0040  -24.6500 C   0  0  0  0  0  3  0  0  0  0  0  0
    2.6050   -9.0480  -24.8330 C   0  0  0  0  0  3  0  0  0  0  0  0
    3.1900   -9.3070  -26.0990 C   0  0  0  0  0  0  0  0  0  0  0  0
    1.6220   -6.4320  -28.0570 C   0  0  0  0  0  0  0  0  0  0  0  0
    2.5690   -6.0140  -28.9440 N   0  0  0  0  0  0  0  0  0  0  0  0
    0.4690   -6.0270  -28.1600 O   0  0  0  0  0  0  0  0  0  0  0  0
    2.3050   -5.3700  -29.6760 H   0  0  0  0  0  0  0  0  0  0  0  0
    3.5310   -6.3290  -28.8650 H   0  0  0  0  0  0  0  0  0  0  0  0
  1 22  1  0  0  0  0
  1  6  1  0  0  0  0
  2  1  2  0  0  0  0
  3  2  1  0  0  0  0
  3  4  2  0  0  0  0
  4  5  1  0  0  0  0
  5  6  2  0  0  0  0
  5  7  1  0  0  0  0
  7 10  1  0  0  0  0
  7  8  1  0  0  0  0
  8  9  2  0  0  0  0
 11  8  1  0  0  0  0
 11 16  1  0  0  0  0
 12 11  2  0  0  0  0
 13 12  1  0  0  0  0
 13 14  2  0  0  0  0
 14 15  1  0  0  0  0
 15 16  2  0  0  0  0
 17 20  1  0  0  0  0
 17 14  1  0  0  0  0
 17 19  1  0  0  0  0
 18 17  1  0  0  0  0
 22 21  1  6  0  0  0
 23 22  1  0  0  0  0
 24 23  1  0  0  0  0
 25 34  1  0  0  0  0
 25 23  1  0  0  0  0
 26 25  2  0  0  0  0
 27 28  2  0  0  0  0
 27 26  1  0  0  0  0
 28 29  1  0  0  0  0
 29 30  2  0  0  0  0
 29 34  1  0  0  0  0
 30 31  1  0  0  0  0
 31 32  2  0  0  0  0
 33 32  1  0  0  0  0
 34 33  2  0  0  0  0
 35 30  1  0  0  0  0
 36 39  1  0  0  0  0
 36 35  1  0  0  0  0
 37 35  2  0  0  0  0
 38 36  1  0  0  0  0
M  END
>  <minimizedAffinity>
-7.34042025

$$$$

 OpenBabel10152419383D

 39 42  0  0  1  0  0  0  0  0999 V2000
   -1.7610   -7.3520  -23.6930 C   0  0  0  0  0  0  0  0  0  0  0  0
   -1.2300   -6.7280  -22.5600 C   0  0  0  0  0  3  0  0  0  0  0  0
   -0.4530   -5.5790  -22.6960 C   0  0  0  0  0  3  0  0  0  0  0  0
   -0.2410   -5.0080  -23.9560 C   0  0  0  0  0  3  0  0  0  0  0  0
   -0.7450   -5.6170  -25.1030 C   0  0  0  0  0  0  0  0  0  0  0  0
   -1.4440   -6.8190  -24.9570 C   0  0  0  0  0  3  0  0  0  0  0  0
   -0.7290   -5.0730  -26.4040 N   0  0  0  0  0  0  0  0  0  0  0  0
    0.1670   -5.1450  -27.4420 C   0  0  0  0  0  0  0  0  0  0  0  0
    0.0840   -4.3730  -28.3940 O   0  0  0  0  0  0  0  0  0  0  0  0
   -1.4680   -4.4120  -26.6190 H   0  0  0  0  0  0  0  0  0  0  0  0
    1.1840   -6.1890  -27.4820 C   0  0  0  0  0  0  0  0  0  0  0  0
    2.0140   -6.3260  -28.5920 C   0  0  0  0  0  3  0  0  0  0  0  0
    2.9120   -7.3870  -28.6270 C   0  0  0  0  0  3  0  0  0  0  0  0
    2.9540   -8.2850  -27.5550 C   0  0  0  0  0  0  0  0  0  0  0  0
    2.1740   -8.1150  -26.4420 N   0  0  0  0  0  0  0  0  0  0  0  0
    1.3200   -7.0640  -26.4200 C   0  0  0  0  0  3  0  0  0  0  0  0
    3.8890   -9.4880  -27.6270 C   0  0  0  0  0  0  0  0  0  0  0  0
    3.2270  -10.6770  -27.6770 F   0  0  0  0  0  0  0  0  0  0  0  0
    4.7180   -9.4650  -28.7090 F   0  0  0  0  0  0  0  0  0  0  0  0
    4.7180   -9.5780  -26.5430 F   0  0  0  0  0  0  0  0  0  0  0  0
   -4.2120   -7.9270  -23.3850 C   0  0  0  0  0  1  0  0  0  0  0  0
   -2.7950   -8.4720  -23.6070 C   0  0  1  0  0  3  0  0  0  0  0  0
   -2.8030   -9.3300  -24.8050 N   0  0  0  0  0  0  0  0  0  0  0  0
   -3.0930   -8.8390  -25.6470 H   0  0  0  0  0  0  0  0  0  0  0  0
   -1.7250  -10.1260  -25.1650 C   0  0  0  0  0  0  0  0  0  0  0  0
   -1.3590   -9.9300  -26.4400 N   0  0  0  0  0  0  0  0  0  0  0  0
   -0.2090  -10.4830  -26.8150 C   0  0  0  0  0  3  0  0  0  0  0  0
    0.6110  -11.2000  -26.0380 N   0  0  0  0  0  0  0  0  0  0  0  0
    0.2180  -11.4580  -24.7700 C   0  0  0  0  0  0  0  0  0  0  0  0
    1.0180  -12.1970  -23.8720 C   0  0  0  0  0  0  0  0  0  0  0  0
    0.5670  -12.5040  -22.5730 C   0  0  0  0  0  3  0  0  0  0  0  0
   -0.6930  -12.1100  -22.1520 C   0  0  0  0  0  3  0  0  0  0  0  0
   -1.4830  -11.3610  -23.0120 C   0  0  0  0  0  3  0  0  0  0  0  0
   -1.0200  -10.9800  -24.2970 C   0  0  0  0  0  0  0  0  0  0  0  0
    2.3880  -12.6950  -24.2150 C   0  0  0  0  0  0  0  0  0  0  0  0
    2.6800  -12.9520  -25.5210 N   0  0  0  0  0  0  0  0  0  0  0  0
    3.2430  -12.8690  -23.3530 O   0  0  0  0  0  0  0  0  0  0  0  0
    3.6020  -13.2880  -25.7610 H   0  0  0  0  0  0  0  0  0  0  0  0
    1.9800  -12.8260  -26.2450 H   0  0  0  0  0  0  0  0  0  0  0  0
  1 22  1  0  0  0  0
  1  2  1  0  0  0  0
  3  2  2  0  0  0  0
  4  3  1  0  0  0  0
  5  6  1  0  0  0  0
  5  4  2  0  0  0  0
  6  1  2  0  0  0  0
  7  5  1  0  0  0  0
  8  7  1  0  0  0  0
  9  8  2  0  0  0  0
 10  7  1  0  0  0  0
 11  8  1  0  0  0  0
 11 16  1  0  0  0  0
 12 11  2  0  0  0  0
 13 12  1  0  0  0  0
 13 14  2  0  0  0  0
 14 15  1  0  0  0  0
 15 16  2  0  0  0  0
 17 14  1  0  0  0  0
 17 20  1  0  0  0  0
 18 17  1  0  0  0  0
 19 17  1  0  0  0  0
 22 21  1  6  0  0  0
 23 22  1  0  0  0  0
 24 23  1  0  0  0  0
 25 23  1  0  0  0  0
 25 34  1  0  0  0  0
 26 25  2  0  0  0  0
 27 26  1  0  0  0  0
 27 28  2  0  0  0  0
 28 29  1  0  0  0  0
 29 34  2  0  0  0  0
 29 30  1  0  0  0  0
 30 31  2  0  0  0  0
 31 32  1  0  0  0  0
 33 32  2  0  0  0  0
 34 33  1  0  0  0  0
 35 30  1  0  0  0  0
 35 37  2  0  0  0  0
 36 35  1  0  0  0  0
 38 36  1  0  0  0  0
 39 36  1  0  0  0  0
M  END
>  <minimizedAffinity>
-7.25418139

$$$$
