
 OpenBabel10152419383D

 39 42  0  0  1  0  0  0  0  0999 V2000
   -0.5040  -11.9790  -23.4070 C   0  0  0  0  0  0  0  0  0  0  0  0
    0.0800  -12.8270  -22.4610 C   0  0  0  0  0  3  0  0  0  0  0  0
   -0.1870  -12.6490  -21.1050 C   0  0  0  0  0  3  0  0  0  0  0  0
   -1.0790  -11.6590  -20.6790 C   0  0  0  0  0  3  0  0  0  0  0  0
   -1.6640  -10.7900  -21.5980 C   0  0  0  0  0  0  0  0  0  0  0  0
   -1.3150  -10.9240  -22.9450 C   0  0  0  0  0  3  0  0  0  0  0  0
   -2.6820   -9.8540  -21.3210 N   0  0  0  0  0  0  0  0  0  0  0  0
   -2.8900   -8.5510  -21.7000 C   0  0  0  0  0  0  0  0  0  0  0  0
   -3.7220   -7.8570  -21.1220 O   0  0  0  0  0  0  0  0  0  0  0  0
   -3.3680  -10.1360  -20.6270 H   0  0  0  0  0  0  0  0  0  0  0  0
   -2.1930   -7.9870  -22.8490 C   0  0  0  0  0  0  0  0  0  0  0  0
   -1.1310   -7.1040  -22.6690 C   0  0  0  0  0  3  0  0  0  0  0  0
   -0.5490   -6.5210  -23.7890 C   0  0  0  0  0  3  0  0  0  0  0  0
   -1.0460   -6.8320  -25.0590 C   0  0  0  0  0  0  0  0  0  0  0  0
   -2.0550   -7.7420  -25.2350 N   0  0  0  0  0  0  0  0  0  0  0  0
   -2.5940   -8.3130  -24.1310 C   0  0  0  0  0  3  0  0  0  0  0  0
   -0.4540   -6.1390  -26.2810 C   0  0  0  0  0  0  0  0  0  0  0  0
   -1.3140   -5.2610  -26.8670 F   0  0  0  0  0  0  0  0  0  0  0  0
    0.6830   -5.4360  -26.0070 F   0  0  0  0  0  0  0  0  0  0  0  0
   -0.1010   -7.0170  -27.2680 F   0  0  0  0  0  0  0  0  0  0  0  0
   -0.6870  -10.9790  -25.7320 C   0  0  0  0  0  1  0  0  0  0  0  0
   -0.4380  -12.2500  -24.9080 C   0  0  1  0  0  3  0  0  0  0  0  0
    0.8490  -12.8360  -25.3220 N   0  0  0  0  0  0  0  0  0  0  0  0
    0.7460  -13.7290  -25.8000 H   0  0  0  0  0  0  0  0  0  0  0  0
    1.8060  -12.1210  -26.0270 C   0  0  0  0  0  0  0  0  0  0  0  0
    2.3070  -12.8250  -27.0520 N   0  0  0  0  0  0  0  0  0  0  0  0
    3.0700  -12.1550  -27.9110 C   0  0  0  0  0  3  0  0  0  0  0  0
    3.3680  -10.8530  -27.8500 N   0  0  0  0  0  0  0  0  0  0  0  0
    2.9210  -10.1490  -26.7850 C   0  0  0  0  0  0  0  0  0  0  0  0
    3.1760   -8.7700  -26.6370 C   0  0  0  0  0  0  0  0  0  0  0  0
    2.7510   -8.0650  -25.4930 C   0  0  0  0  0  3  0  0  0  0  0  0
    2.0930   -8.7210  -24.4640 C   0  0  0  0  0  3  0  0  0  0  0  0
    1.8120  -10.0730  -24.6040 C   0  0  0  0  0  3  0  0  0  0  0  0
    2.1670  -10.7840  -25.7790 C   0  0  0  0  0  0  0  0  0  0  0  0
    3.8930   -7.9530  -27.6670 C   0  0  0  0  0  0  0  0  0  0  0  0
    3.6060   -8.1650  -28.9820 N   0  0  0  0  0  0  0  0  0  0  0  0
    4.7210   -7.1040  -27.3530 O   0  0  0  0  0  0  0  0  0  0  0  0
    4.0850   -7.6190  -29.6840 H   0  0  0  0  0  0  0  0  0  0  0  0
    2.9330   -8.8730  -29.2600 H   0  0  0  0  0  0  0  0  0  0  0  0
  1  6  2  0  0  0  0
  1  2  1  0  0  0  0
  2  3  2  0  0  0  0
  3  4  1  0  0  0  0
  5  7  1  0  0  0  0
  5  4  2  0  0  0  0
  6  5  1  0  0  0  0
  7 10  1  0  0  0  0
  8  7  1  0  0  0  0
  8  9  2  0  0  0  0
 11 12  1  0  0  0  0
 11  8  1  0  0  0  0
 13 12  2  0  0  0  0
 14 13  1  0  0  0  0
 15 14  2  0  0  0  0
 15 16  1  0  0  0  0
 16 11  2  0  0  0  0
 17 19  1  0  0  0  0
 17 14  1  0  0  0  0
 18 17  1  0  0  0  0
 20 17  1  0  0  0  0
 22 21  1  6  0  0  0
 22  1  1  0  0  0  0
 23 22  1  0  0  0  0
 24 23  1  0  0  0  0
 25 34  1  0  0  0  0
 25 23  1  0  0  0  0
 26 25  2  0  0  0  0
 27 28  2  0  0  0  0
 27 26  1  0  0  0  0
 28 29  1  0  0  0  0
 29 30  2  0  0  0  0
 29 34  1  0  0  0  0
 30 31  1  0  0  0  0
 31 32  2  0  0  0  0
 33 32  1  0  0  0  0
 34 33  2  0  0  0  0
 35 37  2  0  0  0  0
 35 30  1  0  0  0  0
 36 35  1  0  0  0  0
 38 36  1  0  0  0  0
 39 36  1  0  0  0  0
M  END
>  <minimizedAffinity>
-8.76524639

$$$$
