
 OpenBabel10152419383D

 39 42  0  0  1  0  0  0  0  0999 V2000
    0.8730  -11.7030  -24.1850 C   0  0  0  0  0  0  0  0  0  0  0  0
    0.1300  -12.0400  -25.3200 C   0  0  0  0  0  3  0  0  0  0  0  0
   -1.2060  -11.6580  -25.4180 C   0  0  0  0  0  3  0  0  0  0  0  0
   -1.8030  -10.8900  -24.4120 C   0  0  0  0  0  3  0  0  0  0  0  0
   -1.0910  -10.5520  -23.2640 C   0  0  0  0  0  0  0  0  0  0  0  0
    0.2200  -11.0210  -23.1390 C   0  0  0  0  0  3  0  0  0  0  0  0
   -1.5220   -9.6680  -22.2530 N   0  0  0  0  0  0  0  0  0  0  0  0
   -1.5140   -8.3000  -22.1330 C   0  0  0  0  0  0  0  0  0  0  0  0
   -1.7090   -7.7650  -21.0450 O   0  0  0  0  0  0  0  0  0  0  0  0
   -1.8150  -10.0980  -21.3810 H   0  0  0  0  0  0  0  0  0  0  0  0
   -1.3600   -7.4490  -23.3070 C   0  0  0  0  0  0  0  0  0  0  0  0
   -1.7090   -7.9170  -24.5710 C   0  0  0  0  0  3  0  0  0  0  0  0
   -1.4670   -7.1060  -25.6750 C   0  0  0  0  0  3  0  0  0  0  0  0
   -0.8790   -5.8510  -25.4860 C   0  0  0  0  0  0  0  0  0  0  0  0
   -0.5870   -5.3720  -24.2360 N   0  0  0  0  0  0  0  0  0  0  0  0
   -0.8500   -6.1710  -23.1740 C   0  0  0  0  0  3  0  0  0  0  0  0
   -0.5490   -4.9920  -26.7020 C   0  0  0  0  0  0  0  0  0  0  0  0
   -0.8120   -5.6150  -27.8840 F   0  0  0  0  0  0  0  0  0  0  0  0
   -1.2310   -3.8110  -26.7310 F   0  0  0  0  0  0  0  0  0  0  0  0
    0.7720   -4.6430  -26.7600 F   0  0  0  0  0  0  0  0  0  0  0  0
    2.7800  -12.9470  -23.0650 C   0  0  0  0  0  1  0  0  0  0  0  0
    2.3860  -11.8890  -24.1060 C   0  0  1  0  0  3  0  0  0  0  0  0
    2.9800  -12.2610  -25.4030 N   0  0  0  0  0  0  0  0  0  0  0  0
    2.3870  -12.8790  -25.9510 H   0  0  0  0  0  0  0  0  0  0  0  0
    3.4970  -11.3250  -26.2870 C   0  0  0  0  0  0  0  0  0  0  0  0
    4.3410  -11.8790  -27.1690 N   0  0  0  0  0  0  0  0  0  0  0  0
    4.7200  -11.1090  -28.1850 C   0  0  0  0  0  3  0  0  0  0  0  0
    4.3280   -9.8500  -28.4090 N   0  0  0  0  0  0  0  0  0  0  0  0
    3.5290   -9.2620  -27.4900 C   0  0  0  0  0  0  0  0  0  0  0  0
    3.0570   -7.9410  -27.6410 C   0  0  0  0  0  0  0  0  0  0  0  0
    2.2720   -7.3250  -26.6470 C   0  0  0  0  0  3  0  0  0  0  0  0
    1.9660   -7.9960  -25.4730 C   0  0  0  0  0  3  0  0  0  0  0  0
    2.4020   -9.3050  -25.3180 C   0  0  0  0  0  3  0  0  0  0  0  0
    3.1310   -9.9670  -26.3380 C   0  0  0  0  0  0  0  0  0  0  0  0
    3.3340   -7.1050  -28.8530 C   0  0  0  0  0  0  0  0  0  0  0  0
    4.5710   -7.1740  -29.4220 N   0  0  0  0  0  0  0  0  0  0  0  0
    2.4790   -6.3720  -29.3390 O   0  0  0  0  0  0  0  0  0  0  0  0
    4.7670   -6.6140  -30.2400 H   0  0  0  0  0  0  0  0  0  0  0  0
    5.2940   -7.7650  -29.0250 H   0  0  0  0  0  0  0  0  0  0  0  0
  1 22  1  0  0  0  0
  1  6  1  0  0  0  0
  2  1  2  0  0  0  0
  3  2  1  0  0  0  0
  3  4  2  0  0  0  0
  4  5  1  0  0  0  0
  5  6  2  0  0  0  0
  5  7  1  0  0  0  0
  7  8  1  0  0  0  0
  7 10  1  0  0  0  0
  8  9  2  0  0  0  0
 11 16  1  0  0  0  0
 11  8  1  0  0  0  0
 12 11  2  0  0  0  0
 13 14  2  0  0  0  0
 13 12  1  0  0  0  0
 14 15  1  0  0  0  0
 15 16  2  0  0  0  0
 17 14  1  0  0  0  0
 18 17  1  0  0  0  0
 19 17  1  0  0  0  0
 20 17  1  0  0  0  0
 22 21  1  1  0  0  0
 23 22  1  0  0  0  0
 24 23  1  0  0  0  0
 25 23  1  0  0  0  0
 26 25  2  0  0  0  0
 27 26  1  0  0  0  0
 28 27  2  0  0  0  0
 28 29  1  0  0  0  0
 29 34  1  0  0  0  0
 30 29  2  0  0  0  0
 30 31  1  0  0  0  0
 31 32  2  0  0  0  0
 32 33  1  0  0  0  0
 34 25  1  0  0  0  0
 34 33  2  0  0  0  0
 35 30  1  0  0  0  0
 36 39  1  0  0  0  0
 36 35  1  0  0  0  0
 37 35  2  0  0  0  0
 38 36  1  0  0  0  0
M  END
>  <minimizedAffinity>
-9.44762897

$$$$
