REMARK  Name = 
REMARK  8 active torsions:
REMARK  status: ('A' for Active; 'I' for Inactive)
REMARK    1  A    between atoms: C_1  and  C_2
REMARK    2  A    between atoms: C_2  and  N_3
REMARK    3  A    between atoms: C_2  and  C_17
REMARK    4  A    between atoms: N_3  and  C_4
REMARK    5  A    between atoms: C_9  and  C_10
REMARK    6  A    between atoms: C_21  and  N_22
REMARK    7  A    between atoms: C_23  and  C_25
REMARK    8  A    between atoms: C_28  and  C_29
REMARK                            x       y       z     vdW  Elec       q    Type
REMARK                         _______ _______ _______ _____ _____    ______ ____
ROOT
ATOM      1  C   UNL     1      -1.019  -1.334  -0.034  0.00  0.00    -0.026 A 
ATOM      2  C   UNL     1      -1.453  -0.257   0.746  0.00  0.00    +0.005 A 
ATOM      3  C   UNL     1      -2.812  -0.081   0.998  0.00  0.00    +0.002 A 
ATOM      4  C   UNL     1      -3.750  -1.004   0.522  0.00  0.00    +0.023 A 
ATOM      5  C   UNL     1      -3.348  -2.077  -0.270  0.00  0.00    +0.034 A 
ATOM      6  C   UNL     1      -1.991  -2.188  -0.590  0.00  0.00    +0.028 A 
ENDROOT
BRANCH   5   7
ATOM      7  N   UNL     1      -4.163  -3.150  -0.687  0.00  0.00    -0.281 N 
ATOM      8  C   UNL     1      -5.509  -3.402  -0.589  0.00  0.00    +0.250 C 
ATOM      9  O   UNL     1      -5.952  -4.528  -0.800  0.00  0.00    -0.270 OA
ATOM     10  H   UNL     1      -3.676  -3.962  -1.053  0.00  0.00    +0.155 HD
BRANCH   8  11
ATOM     11  C   UNL     1      -6.453  -2.325  -0.317  0.00  0.00    +0.055 A 
ATOM     12  C   UNL     1      -6.623  -1.286  -1.229  0.00  0.00    +0.016 A 
ATOM     13  C   UNL     1      -7.469  -0.234  -0.894  0.00  0.00    +0.033 A 
ATOM     14  C   UNL     1      -8.118  -0.246   0.345  0.00  0.00    +0.144 A 
ATOM     15  N   UNL     1      -7.990  -1.295   1.216  0.00  0.00    -0.250 NA
ATOM     16  C   UNL     1      -7.177  -2.319   0.861  0.00  0.00    +0.124 A 
BRANCH  14  17
ATOM     17  C   UNL     1      -8.989   0.942   0.741  0.00  0.00    +0.434 C 
ATOM     18  F   UNL     1     -10.322   0.691   0.622  0.00  0.00    -0.164 F 
ATOM     19  F   UNL     1      -8.790   1.354   2.026  0.00  0.00    -0.164 F 
ATOM     20  F   UNL     1      -8.756   2.048  -0.029  0.00  0.00    -0.164 F 
ENDBRANCH  14  17
ENDBRANCH   8  11
ENDBRANCH   5   7
BRANCH   1  22
ATOM     21  C   UNL     1       1.327  -0.509  -0.536  0.00  0.00    +0.033 C 
ATOM     22  C   UNL     1       0.453  -1.715  -0.164  0.00  0.00    +0.099 C 
BRANCH  22  23
ATOM     23  N   UNL     1       0.992  -2.326   1.064  0.00  0.00    -0.322 N 
ATOM     24  H   UNL     1       1.540  -1.678   1.625  0.00  0.00    +0.148 HD
BRANCH  23  25
ATOM     25  C   UNL     1       0.206  -3.047   1.951  0.00  0.00    +0.130 A 
ATOM     26  N   UNL     1       0.207  -2.507   3.178  0.00  0.00    -0.220 NA
ATOM     27  C   UNL     1      -0.680  -2.998   4.039  0.00  0.00    +0.223 A 
ATOM     28  N   UNL     1      -1.571  -3.963   3.788  0.00  0.00    -0.235 NA
ATOM     29  C   UNL     1      -1.536  -4.558   2.574  0.00  0.00    +0.088 A 
ATOM     30  C   UNL     1      -2.440  -5.579   2.212  0.00  0.00    +0.063 A 
ATOM     31  C   UNL     1      -2.352  -6.227   0.964  0.00  0.00    +0.015 A 
ATOM     32  C   UNL     1      -1.350  -5.895   0.066  0.00  0.00    +0.002 A 
ATOM     33  C   UNL     1      -0.467  -4.876   0.395  0.00  0.00    +0.013 A 
ATOM     34  C   UNL     1      -0.583  -4.163   1.615  0.00  0.00    +0.041 A 
BRANCH  30  35
ATOM     35  C   UNL     1      -3.553  -6.041   3.101  0.00  0.00    +0.244 C 
ATOM     36  N   UNL     1      -3.703  -5.448   4.319  0.00  0.00    -0.325 N 
ATOM     37  O   UNL     1      -4.326  -6.929   2.756  0.00  0.00    -0.270 OA
ATOM     38  H   UNL     1      -4.451  -5.753   4.925  0.00  0.00    +0.145 HD
ATOM     39  H   UNL     1      -3.064  -4.721   4.626  0.00  0.00    +0.145 HD
ENDBRANCH  30  35
ENDBRANCH  23  25
ENDBRANCH  22  23
ENDBRANCH   1  22
TORSDOF 7
