
 OpenBabel10152419423D

 41 45  0  0  1  0  0  0  0  0999 V2000
    1.9330  -11.8260  -26.3070 C   0  0  0  0  0  0  0  0  0  0  0  0
    2.6740  -12.6220  -25.4250 C   0  0  0  0  0  3  0  0  0  0  0  0
    4.0580  -12.4820  -25.3410 C   0  0  0  0  0  3  0  0  0  0  0  0
    4.7220  -11.5600  -26.1540 C   0  0  0  0  0  3  0  0  0  0  0  0
    4.0120  -10.7850  -27.0720 C   0  0  0  0  0  0  0  0  0  0  0  0
    2.6190  -10.9100  -27.1250 C   0  0  0  0  0  3  0  0  0  0  0  0
    4.5990   -9.8390  -27.9320 N   0  0  0  0  0  0  0  0  0  0  0  0
    4.1310   -8.6700  -28.4620 C   0  0  0  0  0  0  0  0  0  0  0  0
    4.7210   -8.1200  -29.3900 O   0  0  0  0  0  0  0  0  0  0  0  0
    5.5400  -10.0470  -28.2530 H   0  0  0  0  0  0  0  0  0  0  0  0
    2.9560   -7.9960  -27.8300 C   0  0  0  0  0  0  0  0  0  0  0  0
    2.1410   -7.2750  -28.6210 C   0  0  0  0  0  3  0  0  0  0  0  0
    0.9480   -6.5380  -28.0770 C   0  0  0  0  0  2  0  0  0  0  0  0
    0.5110   -6.9960  -26.6530 C   0  0  1  0  0  3  0  0  0  0  0  0
    1.6270   -7.5790  -25.8290 C   0  0  0  0  0  3  0  0  0  0  0  0
    2.7580   -8.0290  -26.3930 C   0  0  0  0  0  3  0  0  0  0  0  0
   -0.2460   -5.9160  -25.9050 N   0  0  0  0  0  4  0  0  0  0  0  0
    0.0630   -5.7990  -24.4110 C   0  0  0  0  0  2  0  0  0  0  0  0
   -0.8790   -4.7590  -23.7890 C   0  0  0  0  0  2  0  0  0  0  0  0
   -0.7520   -3.4920  -24.4440 O   0  0  0  0  0  0  0  0  0  0  0  0
   -1.0850   -3.5680  -25.8350 C   0  0  0  0  0  2  0  0  0  0  0  0
   -0.1560   -4.5420  -26.5660 C   0  0  0  0  0  2  0  0  0  0  0  0
   -1.2330   -6.1920  -25.9670 H   0  0  0  0  0  0  0  0  0  0  0  0
    0.4420  -12.0590  -26.4530 C   0  0  0  0  0  2  0  0  0  0  0  0
   -2.3710   -8.6080  -22.2970 C   0  0  0  0  0  0  0  0  0  0  0  0
   -3.0710   -7.7260  -23.1360 C   0  0  0  0  0  3  0  0  0  0  0  0
   -2.9210   -7.8230  -24.5090 C   0  0  0  0  0  3  0  0  0  0  0  0
   -2.0710   -8.7960  -25.0290 C   0  0  0  0  0  3  0  0  0  0  0  0
   -1.3540   -9.6850  -24.1830 C   0  0  0  0  0  0  0  0  0  0  0  0
   -0.4860  -10.6950  -24.6480 C   0  0  0  0  0  0  0  0  0  0  0  0
   -0.3100  -10.8970  -26.0170 N   0  0  0  0  0  0  0  0  0  0  0  0
    0.1390  -11.5400  -23.8120 N   0  0  0  0  0  0  0  0  0  0  0  0
   -0.0840  -11.3720  -22.5070 C   0  0  0  0  0  3  0  0  0  0  0  0
   -0.8850  -10.4560  -21.9640 N   0  0  0  0  0  0  0  0  0  0  0  0
   -1.5100   -9.5980  -22.7890 C   0  0  0  0  0  0  0  0  0  0  0  0
   -0.1680  -10.0580  -26.5620 H   0  0  0  0  0  0  0  0  0  0  0  0
   -1.4530   -8.7190  -20.0720 N   0  0  0  0  0  0  0  0  0  0  0  0
   -2.5520   -8.4490  -20.8400 C   0  0  0  0  0  0  0  0  0  0  0  0
   -3.6260   -8.1450  -20.3430 O   0  0  0  0  0  0  0  0  0  0  0  0
   -1.5510   -8.6180  -19.0700 H   0  0  0  0  0  0  0  0  0  0  0  0
   -0.5460   -8.9460  -20.4530 H   0  0  0  0  0  0  0  0  0  0  0  0
  1  2  1  0  0  0  0
  2  3  2  0  0  0  0
  4  3  1  0  0  0  0
  5  4  2  0  0  0  0
  6  5  1  0  0  0  0
  6  1  2  0  0  0  0
  7  5  1  0  0  0  0
  8  7  1  0  0  0  0
  8 11  1  0  0  0  0
  9  8  2  0  0  0  0
 10  7  1  0  0  0  0
 11 16  1  0  0  0  0
 12 13  1  0  0  0  0
 12 11  2  0  0  0  0
 14 13  1  6  0  0  0
 14 17  1  0  0  0  0
 14 15  1  0  0  0  0
 16 15  2  0  0  0  0
 17 18  1  0  0  0  0
 18 19  1  0  0  0  0
 20 19  1  0  0  0  0
 21 20  1  0  0  0  0
 22 17  1  0  0  0  0
 22 21  1  0  0  0  0
 23 17  1  0  0  0  0
 24  1  1  0  0  0  0
 24 31  1  0  0  0  0
 25 38  1  0  0  0  0
 26 25  2  0  0  0  0
 27 26  1  0  0  0  0
 28 27  2  0  0  0  0
 28 29  1  0  0  0  0
 29 35  1  0  0  0  0
 30 29  2  0  0  0  0
 30 32  1  0  0  0  0
 31 30  1  0  0  0  0
 32 33  2  0  0  0  0
 33 34  1  0  0  0  0
 35 25  1  0  0  0  0
 35 34  2  0  0  0  0
 36 31  1  0  0  0  0
 37 40  1  0  0  0  0
 38 39  2  0  0  0  0
 38 37  1  0  0  0  0
 41 37  1  0  0  0  0
M  END
>  <minimizedAffinity>
-7.01497126

$$$$
