
 OpenBabel10152419423D

 41 45  0  0  1  0  0  0  0  0999 V2000
    1.1400  -11.5710  -24.1860 C   0  0  0  0  0  0  0  0  0  0  0  0
    0.4440  -12.2600  -25.1870 C   0  0  0  0  0  3  0  0  0  0  0  0
   -0.9420  -12.1470  -25.2870 C   0  0  0  0  0  3  0  0  0  0  0  0
   -1.6510  -11.3640  -24.3730 C   0  0  0  0  0  3  0  0  0  0  0  0
   -0.9860  -10.7040  -23.3400 C   0  0  0  0  0  0  0  0  0  0  0  0
    0.4090  -10.7960  -23.2680 C   0  0  0  0  0  3  0  0  0  0  0  0
   -1.6210   -9.9020  -22.3740 N   0  0  0  0  0  0  0  0  0  0  0  0
   -1.6390   -8.5490  -22.1770 C   0  0  0  0  0  0  0  0  0  0  0  0
   -2.0560   -8.0740  -21.1230 O   0  0  0  0  0  0  0  0  0  0  0  0
   -2.1580  -10.3910  -21.6650 H   0  0  0  0  0  0  0  0  0  0  0  0
   -1.2520   -7.6380  -23.2970 C   0  0  0  0  0  0  0  0  0  0  0  0
   -1.5530   -8.0170  -24.5520 C   0  0  0  0  0  3  0  0  0  0  0  0
   -1.1830   -7.1840  -25.7480 C   0  0  0  0  0  2  0  0  0  0  0  0
   -0.8090   -5.7110  -25.4060 C   0  0  1  0  0  3  0  0  0  0  0  0
   -0.2740   -5.5230  -24.0120 C   0  0  0  0  0  3  0  0  0  0  0  0
   -0.4820   -6.4340  -23.0490 C   0  0  0  0  0  3  0  0  0  0  0  0
    0.0930   -5.0850  -26.4530 N   0  0  0  0  0  4  0  0  0  0  0  0
    0.4880   -5.9920  -27.6200 C   0  0  0  0  0  2  0  0  0  0  0  0
    1.5000   -5.2510  -28.5040 C   0  0  0  0  0  2  0  0  0  0  0  0
    0.9620   -4.0100  -28.9730 O   0  0  0  0  0  0  0  0  0  0  0  0
    0.6310   -3.1240  -27.8980 C   0  0  0  0  0  2  0  0  0  0  0  0
   -0.4260   -3.7500  -26.9810 C   0  0  0  0  0  2  0  0  0  0  0  0
    0.9660   -4.8690  -25.9570 H   0  0  0  0  0  0  0  0  0  0  0  0
    2.6340  -11.7810  -24.0350 C   0  0  0  0  0  2  0  0  0  0  0  0
    4.2020   -9.3370  -29.3890 C   0  0  0  0  0  0  0  0  0  0  0  0
    4.6850  -10.4760  -30.0530 C   0  0  0  0  0  3  0  0  0  0  0  0
    4.7220  -11.6910  -29.3890 C   0  0  0  0  0  3  0  0  0  0  0  0
    4.2810  -11.7540  -28.0700 C   0  0  0  0  0  3  0  0  0  0  0  0
    3.8000  -10.6010  -27.3910 C   0  0  0  0  0  0  0  0  0  0  0  0
    3.3340  -10.6020  -26.0600 C   0  0  0  0  0  0  0  0  0  0  0  0
    3.2900  -11.7900  -25.3300 N   0  0  0  0  0  0  0  0  0  0  0  0
    2.8490   -9.4960  -25.4730 N   0  0  0  0  0  0  0  0  0  0  0  0
    2.8430   -8.3790  -26.2030 C   0  0  0  0  0  3  0  0  0  0  0  0
    3.2560   -8.2700  -27.4660 N   0  0  0  0  0  0  0  0  0  0  0  0
    3.7510   -9.3680  -28.0620 C   0  0  0  0  0  0  0  0  0  0  0  0
    4.1190  -12.3660  -25.3930 H   0  0  0  0  0  0  0  0  0  0  0  0
    4.5820   -6.9580  -29.4250 N   0  0  0  0  0  0  0  0  0  0  0  0
    4.2020   -8.0630  -30.1360 C   0  0  0  0  0  0  0  0  0  0  0  0
    3.8380   -7.9870  -31.3010 O   0  0  0  0  0  0  0  0  0  0  0  0
    4.5900   -6.0720  -29.9150 H   0  0  0  0  0  0  0  0  0  0  0  0
    4.9130   -6.9920  -28.4720 H   0  0  0  0  0  0  0  0  0  0  0  0
  1 24  1  0  0  0  0
  1  6  1  0  0  0  0
  2  1  2  0  0  0  0
  3  2  1  0  0  0  0
  3  4  2  0  0  0  0
  4  5  1  0  0  0  0
  5  6  2  0  0  0  0
  5  7  1  0  0  0  0
  7  8  1  0  0  0  0
  7 10  1  0  0  0  0
  8  9  2  0  0  0  0
 11 16  1  0  0  0  0
 11  8  1  0  0  0  0
 12 11  2  0  0  0  0
 13 12  1  0  0  0  0
 14 13  1  6  0  0  0
 14 15  1  0  0  0  0
 15 16  2  0  0  0  0
 17 23  1  0  0  0  0
 17 14  1  0  0  0  0
 18 17  1  0  0  0  0
 19 18  1  0  0  0  0
 20 19  1  0  0  0  0
 20 21  1  0  0  0  0
 21 22  1  0  0  0  0
 22 17  1  0  0  0  0
 25 35  1  0  0  0  0
 26 25  2  0  0  0  0
 26 27  1  0  0  0  0
 27 28  2  0  0  0  0
 28 29  1  0  0  0  0
 29 30  1  0  0  0  0
 30 32  2  0  0  0  0
 30 31  1  0  0  0  0
 31 24  1  0  0  0  0
 33 32  1  0  0  0  0
 34 33  2  0  0  0  0
 35 34  1  0  0  0  0
 35 29  2  0  0  0  0
 36 31  1  0  0  0  0
 37 41  1  0  0  0  0
 38 37  1  0  0  0  0
 38 25  1  0  0  0  0
 39 38  2  0  0  0  0
 40 37  1  0  0  0  0
M  END
>  <minimizedAffinity>
-8.43934631

$$$$
