
 OpenBabel10152419423D

 41 45  0  0  1  0  0  0  0  0999 V2000
   -1.4800   -6.9540  -22.8260 C   0  0  0  0  0  0  0  0  0  0  0  0
   -2.6050   -6.8010  -23.6450 C   0  0  0  0  0  3  0  0  0  0  0  0
   -3.7140   -7.6290  -23.4820 C   0  0  0  0  0  3  0  0  0  0  0  0
   -3.7020   -8.6370  -22.5130 C   0  0  0  0  0  3  0  0  0  0  0  0
   -2.5760   -8.8380  -21.7140 C   0  0  0  0  0  0  0  0  0  0  0  0
   -1.4810   -7.9790  -21.8630 C   0  0  0  0  0  3  0  0  0  0  0  0
   -2.4770   -9.8300  -20.7220 N   0  0  0  0  0  0  0  0  0  0  0  0
   -2.0430  -11.1250  -20.7640 C   0  0  0  0  0  0  0  0  0  0  0  0
   -2.2730  -11.8940  -19.8330 O   0  0  0  0  0  0  0  0  0  0  0  0
   -2.7980   -9.5710  -19.7940 H   0  0  0  0  0  0  0  0  0  0  0  0
   -1.1850  -11.5770  -21.9010 C   0  0  0  0  0  0  0  0  0  0  0  0
   -0.2080  -12.4640  -21.6420 C   0  0  0  0  0  3  0  0  0  0  0  0
    0.7250  -12.9590  -22.7130 C   0  0  0  0  0  2  0  0  0  0  0  0
    0.2270  -12.6900  -24.1650 C   0  0  1  0  0  3  0  0  0  0  0  0
   -0.6910  -11.5040  -24.2880 C   0  0  0  0  0  3  0  0  0  0  0  0
   -1.3300  -10.9960  -23.2230 C   0  0  0  0  0  3  0  0  0  0  0  0
    1.3660  -12.6350  -25.1660 N   0  0  0  0  0  4  0  0  0  0  0  0
    1.1400  -11.7370  -26.3830 C   0  0  0  0  0  2  0  0  0  0  0  0
    2.3220  -11.9020  -27.3480 C   0  0  0  0  0  2  0  0  0  0  0  0
    3.5620  -11.5950  -26.7020 O   0  0  0  0  0  0  0  0  0  0  0  0
    3.8180  -12.4570  -25.5880 C   0  0  0  0  0  2  0  0  0  0  0  0
    2.7190  -12.3230  -24.5290 C   0  0  0  0  0  2  0  0  0  0  0  0
    1.4440  -13.5910  -25.5320 H   0  0  0  0  0  0  0  0  0  0  0  0
   -0.2480   -6.1070  -23.0810 C   0  0  0  0  0  2  0  0  0  0  0  0
    2.4330   -6.6440  -28.5230 C   0  0  0  0  0  0  0  0  0  0  0  0
    1.8310   -5.5750  -29.2060 C   0  0  0  0  0  3  0  0  0  0  0  0
    0.8720   -4.8070  -28.5660 C   0  0  0  0  0  3  0  0  0  0  0  0
    0.5230   -5.1170  -27.2540 C   0  0  0  0  0  3  0  0  0  0  0  0
    1.1240   -6.2050  -26.5630 C   0  0  0  0  0  0  0  0  0  0  0  0
    0.8180   -6.5640  -25.2340 C   0  0  0  0  0  0  0  0  0  0  0  0
   -0.1010   -5.8180  -24.4960 N   0  0  0  0  0  0  0  0  0  0  0  0
    1.4420   -7.5750  -24.6060 N   0  0  0  0  0  0  0  0  0  0  0  0
    2.3600   -8.2430  -25.3050 C   0  0  0  0  0  3  0  0  0  0  0  0
    2.7260   -7.9840  -26.5610 N   0  0  0  0  0  0  0  0  0  0  0  0
    2.1040   -6.9810  -27.2030 C   0  0  0  0  0  0  0  0  0  0  0  0
   -0.9550   -5.5820  -24.9820 H   0  0  0  0  0  0  0  0  0  0  0  0
    4.6680   -7.5320  -28.6720 N   0  0  0  0  0  0  0  0  0  0  0  0
    3.4360   -7.4430  -29.2580 C   0  0  0  0  0  0  0  0  0  0  0  0
    3.1990   -7.9510  -30.3430 O   0  0  0  0  0  0  0  0  0  0  0  0
    5.3740   -8.0730  -29.1560 H   0  0  0  0  0  0  0  0  0  0  0  0
    4.8870   -7.1470  -27.7650 H   0  0  0  0  0  0  0  0  0  0  0  0
  1  6  1  0  0  0  0
  2  3  1  0  0  0  0
  2  1  2  0  0  0  0
  3  4  2  0  0  0  0
  4  5  1  0  0  0  0
  5  7  1  0  0  0  0
  6  5  2  0  0  0  0
  7 10  1  0  0  0  0
  8  7  1  0  0  0  0
  8  9  2  0  0  0  0
 11 12  2  0  0  0  0
 11  8  1  0  0  0  0
 13 12  1  0  0  0  0
 14 15  1  1  0  0  0
 14 13  1  0  0  0  0
 15 16  2  0  0  0  0
 16 11  1  0  0  0  0
 17 22  1  0  0  0  0
 17 14  1  0  0  0  0
 18 17  1  0  0  0  0
 19 20  1  0  0  0  0
 19 18  1  0  0  0  0
 20 21  1  0  0  0  0
 21 22  1  0  0  0  0
 23 17  1  0  0  0  0
 24  1  1  0  0  0  0
 25 35  1  0  0  0  0
 26 27  1  0  0  0  0
 26 25  2  0  0  0  0
 27 28  2  0  0  0  0
 28 29  1  0  0  0  0
 29 30  1  0  0  0  0
 30 32  2  0  0  0  0
 30 31  1  0  0  0  0
 31 24  1  0  0  0  0
 33 32  1  0  0  0  0
 34 33  2  0  0  0  0
 35 29  2  0  0  0  0
 35 34  1  0  0  0  0
 36 31  1  0  0  0  0
 37 41  1  0  0  0  0
 38 37  1  0  0  0  0
 38 25  1  0  0  0  0
 39 38  2  0  0  0  0
 40 37  1  0  0  0  0
M  END
>  <minimizedAffinity>
-8.77842045

$$$$

 OpenBabel10152419423D

 41 45  0  0  1  0  0  0  0  0999 V2000
    1.1400  -11.5710  -24.1860 C   0  0  0  0  0  0  0  0  0  0  0  0
    0.4440  -12.2600  -25.1870 C   0  0  0  0  0  3  0  0  0  0  0  0
   -0.9420  -12.1470  -25.2870 C   0  0  0  0  0  3  0  0  0  0  0  0
   -1.6510  -11.3640  -24.3730 C   0  0  0  0  0  3  0  0  0  0  0  0
   -0.9860  -10.7040  -23.3400 C   0  0  0  0  0  0  0  0  0  0  0  0
    0.4090  -10.7960  -23.2680 C   0  0  0  0  0  3  0  0  0  0  0  0
   -1.6210   -9.9020  -22.3740 N   0  0  0  0  0  0  0  0  0  0  0  0
   -1.6390   -8.5490  -22.1770 C   0  0  0  0  0  0  0  0  0  0  0  0
   -2.0560   -8.0740  -21.1230 O   0  0  0  0  0  0  0  0  0  0  0  0
   -2.1580  -10.3910  -21.6650 H   0  0  0  0  0  0  0  0  0  0  0  0
   -1.2520   -7.6380  -23.2970 C   0  0  0  0  0  0  0  0  0  0  0  0
   -1.5530   -8.0170  -24.5520 C   0  0  0  0  0  3  0  0  0  0  0  0
   -1.1830   -7.1840  -25.7480 C   0  0  0  0  0  2  0  0  0  0  0  0
   -0.8090   -5.7110  -25.4060 C   0  0  1  0  0  3  0  0  0  0  0  0
   -0.2740   -5.5230  -24.0120 C   0  0  0  0  0  3  0  0  0  0  0  0
   -0.4820   -6.4340  -23.0490 C   0  0  0  0  0  3  0  0  0  0  0  0
    0.0930   -5.0850  -26.4530 N   0  0  0  0  0  4  0  0  0  0  0  0
    0.4880   -5.9920  -27.6200 C   0  0  0  0  0  2  0  0  0  0  0  0
    1.5000   -5.2510  -28.5040 C   0  0  0  0  0  2  0  0  0  0  0  0
    0.9620   -4.0100  -28.9730 O   0  0  0  0  0  0  0  0  0  0  0  0
    0.6310   -3.1240  -27.8980 C   0  0  0  0  0  2  0  0  0  0  0  0
   -0.4260   -3.7500  -26.9810 C   0  0  0  0  0  2  0  0  0  0  0  0
    0.9660   -4.8690  -25.9570 H   0  0  0  0  0  0  0  0  0  0  0  0
    2.6340  -11.7810  -24.0350 C   0  0  0  0  0  2  0  0  0  0  0  0
    4.2020   -9.3370  -29.3890 C   0  0  0  0  0  0  0  0  0  0  0  0
    4.6850  -10.4760  -30.0530 C   0  0  0  0  0  3  0  0  0  0  0  0
    4.7220  -11.6910  -29.3890 C   0  0  0  0  0  3  0  0  0  0  0  0
    4.2810  -11.7540  -28.0700 C   0  0  0  0  0  3  0  0  0  0  0  0
    3.8000  -10.6010  -27.3910 C   0  0  0  0  0  0  0  0  0  0  0  0
    3.3340  -10.6020  -26.0600 C   0  0  0  0  0  0  0  0  0  0  0  0
    3.2900  -11.7900  -25.3300 N   0  0  0  0  0  0  0  0  0  0  0  0
    2.8490   -9.4960  -25.4730 N   0  0  0  0  0  0  0  0  0  0  0  0
    2.8430   -8.3790  -26.2030 C   0  0  0  0  0  3  0  0  0  0  0  0
    3.2560   -8.2700  -27.4660 N   0  0  0  0  0  0  0  0  0  0  0  0
    3.7510   -9.3680  -28.0620 C   0  0  0  0  0  0  0  0  0  0  0  0
    4.1190  -12.3660  -25.3930 H   0  0  0  0  0  0  0  0  0  0  0  0
    4.5820   -6.9580  -29.4250 N   0  0  0  0  0  0  0  0  0  0  0  0
    4.2020   -8.0630  -30.1360 C   0  0  0  0  0  0  0  0  0  0  0  0
    3.8380   -7.9870  -31.3010 O   0  0  0  0  0  0  0  0  0  0  0  0
    4.5900   -6.0720  -29.9150 H   0  0  0  0  0  0  0  0  0  0  0  0
    4.9130   -6.9920  -28.4720 H   0  0  0  0  0  0  0  0  0  0  0  0
  1 24  1  0  0  0  0
  1  6  1  0  0  0  0
  2  1  2  0  0  0  0
  3  2  1  0  0  0  0
  3  4  2  0  0  0  0
  4  5  1  0  0  0  0
  5  6  2  0  0  0  0
  5  7  1  0  0  0  0
  7  8  1  0  0  0  0
  7 10  1  0  0  0  0
  8  9  2  0  0  0  0
 11 16  1  0  0  0  0
 11  8  1  0  0  0  0
 12 11  2  0  0  0  0
 13 12  1  0  0  0  0
 14 13  1  6  0  0  0
 14 15  1  0  0  0  0
 15 16  2  0  0  0  0
 17 23  1  0  0  0  0
 17 14  1  0  0  0  0
 18 17  1  0  0  0  0
 19 18  1  0  0  0  0
 20 19  1  0  0  0  0
 20 21  1  0  0  0  0
 21 22  1  0  0  0  0
 22 17  1  0  0  0  0
 25 35  1  0  0  0  0
 26 25  2  0  0  0  0
 26 27  1  0  0  0  0
 27 28  2  0  0  0  0
 28 29  1  0  0  0  0
 29 30  1  0  0  0  0
 30 32  2  0  0  0  0
 30 31  1  0  0  0  0
 31 24  1  0  0  0  0
 33 32  1  0  0  0  0
 34 33  2  0  0  0  0
 35 34  1  0  0  0  0
 35 29  2  0  0  0  0
 36 31  1  0  0  0  0
 37 41  1  0  0  0  0
 38 37  1  0  0  0  0
 38 25  1  0  0  0  0
 39 38  2  0  0  0  0
 40 37  1  0  0  0  0
M  END
>  <minimizedAffinity>
-8.43934631

$$$$

 OpenBabel10152419423D

 41 45  0  0  1  0  0  0  0  0999 V2000
   -1.2100  -11.4070  -21.2870 C   0  0  0  0  0  0  0  0  0  0  0  0
   -0.5720  -10.8580  -20.1680 C   0  0  0  0  0  3  0  0  0  0  0  0
   -0.9070   -9.5820  -19.7210 C   0  0  0  0  0  3  0  0  0  0  0  0
   -1.8680   -8.8280  -20.4010 C   0  0  0  0  0  3  0  0  0  0  0  0
   -2.4860   -9.3350  -21.5440 C   0  0  0  0  0  0  0  0  0  0  0  0
   -2.1670  -10.6310  -21.9650 C   0  0  0  0  0  3  0  0  0  0  0  0
   -3.4570   -8.6440  -22.2920 N   0  0  0  0  0  0  0  0  0  0  0  0
   -3.3540   -7.6900  -23.2650 C   0  0  0  0  0  0  0  0  0  0  0  0
   -4.3370   -7.0390  -23.6120 O   0  0  0  0  0  0  0  0  0  0  0  0
   -4.4260   -8.8590  -22.0770 H   0  0  0  0  0  0  0  0  0  0  0  0
   -2.0590   -7.5170  -23.9900 C   0  0  0  0  0  0  0  0  0  0  0  0
   -1.2870   -6.4650  -23.6640 C   0  0  0  0  0  3  0  0  0  0  0  0
    0.0200   -6.1890  -24.3550 C   0  0  0  0  0  2  0  0  0  0  0  0
    0.5850   -7.4010  -25.1550 C   0  0  1  0  0  3  0  0  0  0  0  0
   -0.4680   -8.3630  -25.6340 C   0  0  0  0  0  3  0  0  0  0  0  0
   -1.6930   -8.3950  -25.0860 C   0  0  0  0  0  3  0  0  0  0  0  0
    1.5150   -6.9710  -26.2740 N   0  0  0  0  0  4  0  0  0  0  0  0
    2.4260   -8.0630  -26.8380 C   0  0  0  0  0  2  0  0  0  0  0  0
    3.3860   -7.4330  -27.8570 C   0  0  0  0  0  2  0  0  0  0  0  0
    2.6640   -6.7700  -28.9010 O   0  0  0  0  0  0  0  0  0  0  0  0
    1.8420   -5.7100  -28.4010 C   0  0  0  0  0  2  0  0  0  0  0  0
    0.8010   -6.2470  -27.4130 C   0  0  0  0  0  2  0  0  0  0  0  0
    2.1400   -6.2760  -25.8490 H   0  0  0  0  0  0  0  0  0  0  0  0
   -0.7650  -12.7580  -21.8150 C   0  0  0  0  0  2  0  0  0  0  0  0
    3.2670  -12.2820  -26.3540 C   0  0  0  0  0  0  0  0  0  0  0  0
    4.4470  -12.6320  -25.6800 C   0  0  0  0  0  3  0  0  0  0  0  0
    4.4040  -12.9090  -24.3230 C   0  0  0  0  0  3  0  0  0  0  0  0
    3.1840  -12.8300  -23.6560 C   0  0  0  0  0  3  0  0  0  0  0  0
    1.9880  -12.4670  -24.3340 C   0  0  0  0  0  0  0  0  0  0  0  0
    0.7240  -12.3760  -23.7170 C   0  0  0  0  0  0  0  0  0  0  0  0
    0.5760  -12.6840  -22.3640 N   0  0  0  0  0  0  0  0  0  0  0  0
   -0.3870  -12.0690  -24.4070 N   0  0  0  0  0  0  0  0  0  0  0  0
   -0.2410  -11.8340  -25.7120 C   0  0  0  0  0  3  0  0  0  0  0  0
    0.9040  -11.8960  -26.3920 N   0  0  0  0  0  0  0  0  0  0  0  0
    2.0240  -12.1940  -25.7120 C   0  0  0  0  0  0  0  0  0  0  0  0
    1.2760  -12.2850  -21.7520 H   0  0  0  0  0  0  0  0  0  0  0  0
    2.9330  -12.9570  -28.6430 N   0  0  0  0  0  0  0  0  0  0  0  0
    3.3720  -11.9770  -27.7960 C   0  0  0  0  0  0  0  0  0  0  0  0
    3.8650  -10.9390  -28.2110 O   0  0  0  0  0  0  0  0  0  0  0  0
    2.9960  -12.7730  -29.6370 H   0  0  0  0  0  0  0  0  0  0  0  0
    2.4980  -13.8130  -28.3320 H   0  0  0  0  0  0  0  0  0  0  0  0
  1  2  1  0  0  0  0
  2  3  2  0  0  0  0
  4  3  1  0  0  0  0
  5  4  2  0  0  0  0
  6  5  1  0  0  0  0
  6  1  2  0  0  0  0
  7 10  1  0  0  0  0
  7  5  1  0  0  0  0
  8  7  1  0  0  0  0
  9  8  2  0  0  0  0
 11 12  2  0  0  0  0
 11  8  1  0  0  0  0
 13 12  1  0  0  0  0
 14 15  1  6  0  0  0
 14 13  1  0  0  0  0
 15 16  2  0  0  0  0
 16 11  1  0  0  0  0
 17 23  1  0  0  0  0
 17 14  1  0  0  0  0
 18 17  1  0  0  0  0
 19 18  1  0  0  0  0
 20 21  1  0  0  0  0
 20 19  1  0  0  0  0
 21 22  1  0  0  0  0
 22 17  1  0  0  0  0
 24  1  1  0  0  0  0
 25 35  2  0  0  0  0
 25 26  1  0  0  0  0
 26 27  2  0  0  0  0
 27 28  1  0  0  0  0
 29 30  1  0  0  0  0
 29 28  2  0  0  0  0
 30 31  1  0  0  0  0
 31 24  1  0  0  0  0
 31 36  1  0  0  0  0
 32 30  2  0  0  0  0
 33 32  1  0  0  0  0
 34 35  1  0  0  0  0
 34 33  2  0  0  0  0
 35 29  1  0  0  0  0
 37 41  1  0  0  0  0
 37 38  1  0  0  0  0
 38 25  1  0  0  0  0
 39 38  2  0  0  0  0
 40 37  1  0  0  0  0
M  END
>  <minimizedAffinity>
-7.82238817

$$$$

 OpenBabel10152419423D

 41 45  0  0  1  0  0  0  0  0999 V2000
   -1.7670   -6.8910  -24.8430 C   0  0  0  0  0  0  0  0  0  0  0  0
   -1.1770   -6.4690  -23.6460 C   0  0  0  0  0  3  0  0  0  0  0  0
   -0.2140   -5.4620  -23.6500 C   0  0  0  0  0  3  0  0  0  0  0  0
    0.1880   -4.8800  -24.8550 C   0  0  0  0  0  3  0  0  0  0  0  0
   -0.3530   -5.3130  -26.0660 C   0  0  0  0  0  0  0  0  0  0  0  0
   -1.3430   -6.3010  -26.0480 C   0  0  0  0  0  3  0  0  0  0  0  0
   -0.0010   -4.7880  -27.3240 N   0  0  0  0  0  0  0  0  0  0  0  0
    1.0800   -4.9970  -28.1320 C   0  0  0  0  0  0  0  0  0  0  0  0
    1.3110   -4.2470  -29.0780 O   0  0  0  0  0  0  0  0  0  0  0  0
   -0.6430   -4.1090  -27.7220 H   0  0  0  0  0  0  0  0  0  0  0  0
    1.9240   -6.2140  -27.9310 C   0  0  0  0  0  0  0  0  0  0  0  0
    2.8290   -6.5190  -28.8770 C   0  0  0  0  0  3  0  0  0  0  0  0
    3.7060   -7.7370  -28.7800 C   0  0  0  0  0  2  0  0  0  0  0  0
    3.7710   -8.3620  -27.3550 C   0  0  1  0  0  3  0  0  0  0  0  0
    2.5520   -8.0960  -26.5130 C   0  0  0  0  0  3  0  0  0  0  0  0
    1.7010   -7.0990  -26.8030 C   0  0  0  0  0  3  0  0  0  0  0  0
    4.1310   -9.8360  -27.3850 N   0  0  0  0  0  4  0  0  0  0  0  0
    3.6790  -10.6570  -26.1760 C   0  0  0  0  0  2  0  0  0  0  0  0
    4.2370  -12.0810  -26.3060 C   0  0  0  0  0  2  0  0  0  0  0  0
    3.8150  -12.6890  -27.5320 O   0  0  0  0  0  0  0  0  0  0  0  0
    4.2700  -11.9640  -28.6800 C   0  0  0  0  0  2  0  0  0  0  0  0
    3.7150  -10.5350  -28.6770 C   0  0  0  0  0  2  0  0  0  0  0  0
    5.1570   -9.8590  -27.3730 H   0  0  0  0  0  0  0  0  0  0  0  0
   -2.7430   -8.0520  -24.8280 C   0  0  0  0  0  2  0  0  0  0  0  0
   -0.7300  -12.2160  -20.8660 C   0  0  0  0  0  0  0  0  0  0  0  0
    0.1260  -12.9590  -21.6950 C   0  0  0  0  0  3  0  0  0  0  0  0
    0.2380  -12.6270  -23.0350 C   0  0  0  0  0  3  0  0  0  0  0  0
   -0.5080  -11.5620  -23.5330 C   0  0  0  0  0  3  0  0  0  0  0  0
   -1.3830  -10.8140  -22.6980 C   0  0  0  0  0  0  0  0  0  0  0  0
   -2.1580   -9.7220  -23.1390 C   0  0  0  0  0  0  0  0  0  0  0  0
   -2.0730   -9.2870  -24.4630 N   0  0  0  0  0  0  0  0  0  0  0  0
   -2.9400   -9.0170  -22.3050 N   0  0  0  0  0  0  0  0  0  0  0  0
   -2.9670   -9.4090  -21.0300 C   0  0  0  0  0  3  0  0  0  0  0  0
   -2.2730  -10.4210  -20.5100 N   0  0  0  0  0  0  0  0  0  0  0  0
   -1.4930  -11.1390  -21.3350 C   0  0  0  0  0  0  0  0  0  0  0  0
   -2.1000  -10.0190  -25.1600 H   0  0  0  0  0  0  0  0  0  0  0  0
   -2.0790  -12.9580  -19.0120 N   0  0  0  0  0  0  0  0  0  0  0  0
   -0.8270  -12.6240  -19.4490 C   0  0  0  0  0  0  0  0  0  0  0  0
    0.1380  -12.6170  -18.6990 O   0  0  0  0  0  0  0  0  0  0  0  0
   -2.1730  -13.2400  -18.0450 H   0  0  0  0  0  0  0  0  0  0  0  0
   -2.8890  -13.0000  -19.6130 H   0  0  0  0  0  0  0  0  0  0  0  0
  1 24  1  0  0  0  0
  1  2  1  0  0  0  0
  3  2  2  0  0  0  0
  4  3  1  0  0  0  0
  5  6  1  0  0  0  0
  5  4  2  0  0  0  0
  6  1  2  0  0  0  0
  7  5  1  0  0  0  0
  8 11  1  0  0  0  0
  8  7  1  0  0  0  0
  9  8  2  0  0  0  0
 10  7  1  0  0  0  0
 11 16  1  0  0  0  0
 12 13  1  0  0  0  0
 12 11  2  0  0  0  0
 14 13  1  6  0  0  0
 14 15  1  0  0  0  0
 16 15  2  0  0  0  0
 17 23  1  0  0  0  0
 17 14  1  0  0  0  0
 17 18  1  0  0  0  0
 19 18  1  0  0  0  0
 20 19  1  0  0  0  0
 21 22  1  0  0  0  0
 21 20  1  0  0  0  0
 22 17  1  0  0  0  0
 24 31  1  0  0  0  0
 25 38  1  0  0  0  0
 26 25  2  0  0  0  0
 27 26  1  0  0  0  0
 28 27  2  0  0  0  0
 28 29  1  0  0  0  0
 29 35  1  0  0  0  0
 30 29  2  0  0  0  0
 30 32  1  0  0  0  0
 31 30  1  0  0  0  0
 32 33  2  0  0  0  0
 33 34  1  0  0  0  0
 35 25  1  0  0  0  0
 35 34  2  0  0  0  0
 36 31  1  0  0  0  0
 37 40  1  0  0  0  0
 38 37  1  0  0  0  0
 38 39  2  0  0  0  0
 41 37  1  0  0  0  0
M  END
>  <minimizedAffinity>
-7.43894434

$$$$

 OpenBabel10152419423D

 41 45  0  0  1  0  0  0  0  0999 V2000
    1.9330  -11.8260  -26.3070 C   0  0  0  0  0  0  0  0  0  0  0  0
    2.6740  -12.6220  -25.4250 C   0  0  0  0  0  3  0  0  0  0  0  0
    4.0580  -12.4820  -25.3410 C   0  0  0  0  0  3  0  0  0  0  0  0
    4.7220  -11.5600  -26.1540 C   0  0  0  0  0  3  0  0  0  0  0  0
    4.0120  -10.7850  -27.0720 C   0  0  0  0  0  0  0  0  0  0  0  0
    2.6190  -10.9100  -27.1250 C   0  0  0  0  0  3  0  0  0  0  0  0
    4.5990   -9.8390  -27.9320 N   0  0  0  0  0  0  0  0  0  0  0  0
    4.1310   -8.6700  -28.4620 C   0  0  0  0  0  0  0  0  0  0  0  0
    4.7210   -8.1200  -29.3900 O   0  0  0  0  0  0  0  0  0  0  0  0
    5.5400  -10.0470  -28.2530 H   0  0  0  0  0  0  0  0  0  0  0  0
    2.9560   -7.9960  -27.8300 C   0  0  0  0  0  0  0  0  0  0  0  0
    2.1410   -7.2750  -28.6210 C   0  0  0  0  0  3  0  0  0  0  0  0
    0.9480   -6.5380  -28.0770 C   0  0  0  0  0  2  0  0  0  0  0  0
    0.5110   -6.9960  -26.6530 C   0  0  1  0  0  3  0  0  0  0  0  0
    1.6270   -7.5790  -25.8290 C   0  0  0  0  0  3  0  0  0  0  0  0
    2.7580   -8.0290  -26.3930 C   0  0  0  0  0  3  0  0  0  0  0  0
   -0.2460   -5.9160  -25.9050 N   0  0  0  0  0  4  0  0  0  0  0  0
    0.0630   -5.7990  -24.4110 C   0  0  0  0  0  2  0  0  0  0  0  0
   -0.8790   -4.7590  -23.7890 C   0  0  0  0  0  2  0  0  0  0  0  0
   -0.7520   -3.4920  -24.4440 O   0  0  0  0  0  0  0  0  0  0  0  0
   -1.0850   -3.5680  -25.8350 C   0  0  0  0  0  2  0  0  0  0  0  0
   -0.1560   -4.5420  -26.5660 C   0  0  0  0  0  2  0  0  0  0  0  0
   -1.2330   -6.1920  -25.9670 H   0  0  0  0  0  0  0  0  0  0  0  0
    0.4420  -12.0590  -26.4530 C   0  0  0  0  0  2  0  0  0  0  0  0
   -2.3710   -8.6080  -22.2970 C   0  0  0  0  0  0  0  0  0  0  0  0
   -3.0710   -7.7260  -23.1360 C   0  0  0  0  0  3  0  0  0  0  0  0
   -2.9210   -7.8230  -24.5090 C   0  0  0  0  0  3  0  0  0  0  0  0
   -2.0710   -8.7960  -25.0290 C   0  0  0  0  0  3  0  0  0  0  0  0
   -1.3540   -9.6850  -24.1830 C   0  0  0  0  0  0  0  0  0  0  0  0
   -0.4860  -10.6950  -24.6480 C   0  0  0  0  0  0  0  0  0  0  0  0
   -0.3100  -10.8970  -26.0170 N   0  0  0  0  0  0  0  0  0  0  0  0
    0.1390  -11.5400  -23.8120 N   0  0  0  0  0  0  0  0  0  0  0  0
   -0.0840  -11.3720  -22.5070 C   0  0  0  0  0  3  0  0  0  0  0  0
   -0.8850  -10.4560  -21.9640 N   0  0  0  0  0  0  0  0  0  0  0  0
   -1.5100   -9.5980  -22.7890 C   0  0  0  0  0  0  0  0  0  0  0  0
   -0.1680  -10.0580  -26.5620 H   0  0  0  0  0  0  0  0  0  0  0  0
   -1.4530   -8.7190  -20.0720 N   0  0  0  0  0  0  0  0  0  0  0  0
   -2.5520   -8.4490  -20.8400 C   0  0  0  0  0  0  0  0  0  0  0  0
   -3.6260   -8.1450  -20.3430 O   0  0  0  0  0  0  0  0  0  0  0  0
   -1.5510   -8.6180  -19.0700 H   0  0  0  0  0  0  0  0  0  0  0  0
   -0.5460   -8.9460  -20.4530 H   0  0  0  0  0  0  0  0  0  0  0  0
  1  2  1  0  0  0  0
  2  3  2  0  0  0  0
  4  3  1  0  0  0  0
  5  4  2  0  0  0  0
  6  5  1  0  0  0  0
  6  1  2  0  0  0  0
  7  5  1  0  0  0  0
  8  7  1  0  0  0  0
  8 11  1  0  0  0  0
  9  8  2  0  0  0  0
 10  7  1  0  0  0  0
 11 16  1  0  0  0  0
 12 13  1  0  0  0  0
 12 11  2  0  0  0  0
 14 13  1  6  0  0  0
 14 17  1  0  0  0  0
 14 15  1  0  0  0  0
 16 15  2  0  0  0  0
 17 18  1  0  0  0  0
 18 19  1  0  0  0  0
 20 19  1  0  0  0  0
 21 20  1  0  0  0  0
 22 17  1  0  0  0  0
 22 21  1  0  0  0  0
 23 17  1  0  0  0  0
 24  1  1  0  0  0  0
 24 31  1  0  0  0  0
 25 38  1  0  0  0  0
 26 25  2  0  0  0  0
 27 26  1  0  0  0  0
 28 27  2  0  0  0  0
 28 29  1  0  0  0  0
 29 35  1  0  0  0  0
 30 29  2  0  0  0  0
 30 32  1  0  0  0  0
 31 30  1  0  0  0  0
 32 33  2  0  0  0  0
 33 34  1  0  0  0  0
 35 25  1  0  0  0  0
 35 34  2  0  0  0  0
 36 31  1  0  0  0  0
 37 40  1  0  0  0  0
 38 39  2  0  0  0  0
 38 37  1  0  0  0  0
 41 37  1  0  0  0  0
M  END
>  <minimizedAffinity>
-7.01497126

$$$$
