REMARK  Name = 
REMARK  6 active torsions:
REMARK  status: ('A' for Active; 'I' for Inactive)
REMARK    1  A    between atoms: C_2  and  C_4
REMARK    2  A    between atoms: N_10  and  C_11
REMARK    3  A    between atoms: C_11  and  C_12
REMARK    4  A    between atoms: C_16  and  N_17
REMARK    5  A    between atoms: C_18  and  C_20
REMARK    6  A    between atoms: C_23  and  N_24
REMARK                            x       y       z     vdW  Elec       q    Type
REMARK                         _______ _______ _______ _____ _____    ______ ____
ROOT
ATOM      1  C   UNL     1       2.778  -8.057   4.314  0.00  0.00    -0.029 A 
ATOM      2  C   UNL     1       2.611  -9.302   4.933  0.00  0.00    +0.005 A 
ATOM      3  C   UNL     1       3.711 -10.123   5.174  0.00  0.00    +0.002 A 
ATOM      4  C   UNL     1       4.989  -9.720   4.778  0.00  0.00    +0.023 A 
ATOM      5  C   UNL     1       5.176  -8.504   4.120  0.00  0.00    +0.034 A 
ATOM      6  C   UNL     1       4.070  -7.672   3.913  0.00  0.00    +0.028 A 
ENDROOT
BRANCH   5   7
ATOM      7  N   UNL     1       6.424  -8.024   3.682  0.00  0.00    -0.282 N 
ATOM      8  C   UNL     1       7.607  -8.657   3.422  0.00  0.00    +0.248 C 
ATOM      9  O   UNL     1       8.646  -8.014   3.287  0.00  0.00    -0.270 OA
ATOM     10  H   UNL     1       6.496  -7.021   3.543  0.00  0.00    +0.155 HD
BRANCH   8  11
ATOM     11  C   UNL     1       7.615 -10.133   3.188  0.00  0.00    +0.033 C 
ATOM     12  C   UNL     1       8.487 -10.879   3.889  0.00  0.00    -0.008 C 
ATOM     13  C   UNL     1       8.591 -12.368   3.706  0.00  0.00    +0.087 C 
ATOM     14  C   UNL     1       7.373 -13.006   2.973  0.00  0.00    +0.092 C 
ATOM     15  C   UNL     1       6.651 -12.062   2.050  0.00  0.00    +0.027 C 
ATOM     16  C   UNL     1       6.784 -10.731   2.160  0.00  0.00    +0.014 C 
BRANCH  14  17
ATOM     17  N   UNL     1       7.729 -14.312   2.288  0.00  0.00    +0.244 N 
ATOM     18  C   UNL     1       8.684 -14.201   1.098  0.00  0.00    +0.160 C 
ATOM     19  C   UNL     1       8.829 -15.583   0.447  0.00  0.00    +0.210 C 
ATOM     20  O   UNL     1       9.293 -16.552   1.394  0.00  0.00    -0.369 OA
ATOM     21  C   UNL     1       8.389 -16.709   2.493  0.00  0.00    +0.210 C 
ATOM     22  C   UNL     1       8.220 -15.389   3.253  0.00  0.00    +0.160 C 
ATOM     23  H   UNL     1       6.843 -14.662   1.906  0.00  0.00    +0.204 HD
ENDBRANCH  14  17
ENDBRANCH   8  11
ENDBRANCH   5   7
BRANCH   1  24
ATOM     24  C   UNL     1       1.559  -7.221   3.975  0.00  0.00    +0.138 C 
BRANCH  24  31
ATOM     25  C   UNL     1       1.099  -1.513   1.902  0.00  0.00    +0.063 A 
ATOM     26  C   UNL     1       2.206  -0.926   2.535  0.00  0.00    +0.015 A 
ATOM     27  C   UNL     1       2.985  -1.684   3.394  0.00  0.00    +0.002 A 
ATOM     28  C   UNL     1       2.647  -3.017   3.614  0.00  0.00    +0.013 A 
ATOM     29  C   UNL     1       1.521  -3.612   2.982  0.00  0.00    +0.041 A 
ATOM     30  C   UNL     1       1.132  -4.956   3.158  0.00  0.00    +0.130 A 
ATOM     31  N   UNL     1       1.885  -5.807   3.968  0.00  0.00    -0.324 N 
ATOM     32  N   UNL     1       0.084  -5.487   2.507  0.00  0.00    -0.220 NA
ATOM     33  C   UNL     1      -0.592  -4.677   1.691  0.00  0.00    +0.223 A 
ATOM     34  N   UNL     1      -0.308  -3.397   1.451  0.00  0.00    -0.235 NA
ATOM     35  C   UNL     1       0.733  -2.851   2.102  0.00  0.00    +0.088 A 
ATOM     36  H   UNL     1       2.162  -5.420   4.860  0.00  0.00    +0.148 HD
BRANCH  25  38
ATOM     37  N   UNL     1       0.961  -0.097  -0.043  0.00  0.00    -0.325 N 
ATOM     38  C   UNL     1       0.291  -0.655   1.011  0.00  0.00    +0.244 C 
ATOM     39  O   UNL     1      -0.888  -0.416   1.225  0.00  0.00    -0.270 OA
ATOM     40  H   UNL     1       0.430   0.496  -0.668  0.00  0.00    +0.145 HD
ATOM     41  H   UNL     1       1.926  -0.296  -0.262  0.00  0.00    +0.145 HD
ENDBRANCH  25  38
ENDBRANCH  24  31
ENDBRANCH   1  24
TORSDOF 6
