
 OpenBabel10152418223D

 41 45  0  0  1  0  0  0  0  0999 V2000
    1.3070  -11.8080  -25.9940 C   0  0  0  0  0  0  0  0  0  0  0  0
    1.8690  -11.8270  -24.7110 C   0  0  0  0  0  3  0  0  0  0  0  0
    3.2510  -11.8840  -24.5440 C   0  0  0  0  0  3  0  0  0  0  0  0
    4.0900  -11.9450  -25.6580 C   0  0  0  0  0  3  0  0  0  0  0  0
    3.5550  -11.9700  -26.9470 C   0  0  0  0  0  0  0  0  0  0  0  0
    2.1670  -11.8800  -27.1050 C   0  0  0  0  0  3  0  0  0  0  0  0
    4.3280  -12.0370  -28.1220 N   0  0  0  0  0  0  0  0  0  0  0  0
    4.4180  -11.2100  -29.2050 C   0  0  0  0  0  0  0  0  0  0  0  0
    4.9730  -11.5850  -30.2370 O   0  0  0  0  0  0  0  0  0  0  0  0
    4.9230  -12.8530  -28.2220 H   0  0  0  0  0  0  0  0  0  0  0  0
    3.9390   -9.7990  -29.0960 C   0  0  0  0  0  0  0  0  0  0  0  0
    3.9850   -9.2060  -27.8900 C   0  0  0  0  0  3  0  0  0  0  0  0
    3.5020   -7.7980  -27.6740 C   0  0  0  0  0  2  0  0  0  0  0  0
    3.3340   -6.9730  -28.9850 C   0  0  1  0  0  3  0  0  0  0  0  0
    3.0610   -7.8120  -30.2040 C   0  0  0  0  0  3  0  0  0  0  0  0
    3.3410   -9.1250  -30.2330 C   0  0  0  0  0  3  0  0  0  0  0  0
    2.3340   -5.8430  -28.8350 N   0  0  0  0  0  4  0  0  0  0  0  0
    0.8790   -6.2650  -28.6260 C   0  0  0  0  0  2  0  0  0  0  0  0
   -0.0070   -5.0120  -28.6290 C   0  0  0  0  0  2  0  0  0  0  0  0
    0.4110   -4.0840  -27.6220 O   0  0  0  0  0  0  0  0  0  0  0  0
    1.7550   -3.6360  -27.8250 C   0  0  0  0  0  2  0  0  0  0  0  0
    2.7350   -4.8140  -27.7800 C   0  0  0  0  0  2  0  0  0  0  0  0
    2.3570   -5.3460  -29.7330 H   0  0  0  0  0  0  0  0  0  0  0  0
   -0.2020  -11.8470  -26.1350 C   0  0  0  0  0  2  0  0  0  0  0  0
   -1.0200   -6.5560  -23.2280 C   0  0  0  0  0  0  0  0  0  0  0  0
   -1.8920   -6.9600  -22.2030 C   0  0  0  0  0  3  0  0  0  0  0  0
   -2.3180   -8.2770  -22.1500 C   0  0  0  0  0  3  0  0  0  0  0  0
   -1.8740   -9.1730  -23.1190 C   0  0  0  0  0  3  0  0  0  0  0  0
   -0.9990   -8.7650  -24.1620 C   0  0  0  0  0  0  0  0  0  0  0  0
   -0.5120   -9.6230  -25.1700 C   0  0  0  0  0  0  0  0  0  0  0  0
   -0.8540  -10.9770  -25.1710 N   0  0  0  0  0  0  0  0  0  0  0  0
    0.3450   -9.1990  -26.1140 N   0  0  0  0  0  0  0  0  0  0  0  0
    0.7080   -7.9180  -26.0680 C   0  0  0  0  0  3  0  0  0  0  0  0
    0.3110   -7.0260  -25.1610 N   0  0  0  0  0  0  0  0  0  0  0  0
   -0.5550   -7.4320  -24.2170 C   0  0  0  0  0  0  0  0  0  0  0  0
   -1.8340  -11.1700  -25.0080 H   0  0  0  0  0  0  0  0  0  0  0  0
   -0.4550   -4.5870  -24.4980 N   0  0  0  0  0  0  0  0  0  0  0  0
   -0.6130   -5.1350  -23.2540 C   0  0  0  0  0  0  0  0  0  0  0  0
   -0.3830   -4.5010  -22.2360 O   0  0  0  0  0  0  0  0  0  0  0  0
   -0.1750   -3.6150  -24.5430 H   0  0  0  0  0  0  0  0  0  0  0  0
   -0.6610   -5.0750  -25.3570 H   0  0  0  0  0  0  0  0  0  0  0  0
  1  2  1  0  0  0  0
  2  3  2  0  0  0  0
  4  3  1  0  0  0  0
  5  4  2  0  0  0  0
  6  5  1  0  0  0  0
  6  1  2  0  0  0  0
  7  5  1  0  0  0  0
  8 11  1  0  0  0  0
  8  7  1  0  0  0  0
  9  8  2  0  0  0  0
 10  7  1  0  0  0  0
 11 12  2  0  0  0  0
 12 13  1  0  0  0  0
 14 15  1  6  0  0  0
 14 17  1  0  0  0  0
 14 13  1  0  0  0  0
 16 15  2  0  0  0  0
 16 11  1  0  0  0  0
 17 18  1  0  0  0  0
 17 22  1  0  0  0  0
 19 18  1  0  0  0  0
 19 20  1  0  0  0  0
 21 22  1  0  0  0  0
 21 20  1  0  0  0  0
 23 17  1  0  0  0  0
 24  1  1  0  0  0  0
 24 31  1  0  0  0  0
 25 26  1  0  0  0  0
 26 27  2  0  0  0  0
 28 27  1  0  0  0  0
 29 28  2  0  0  0  0
 30 29  1  0  0  0  0
 31 30  1  0  0  0  0
 31 36  1  0  0  0  0
 32 33  1  0  0  0  0
 32 30  2  0  0  0  0
 33 34  2  0  0  0  0
 34 35  1  0  0  0  0
 35 29  1  0  0  0  0
 35 25  2  0  0  0  0
 37 38  1  0  0  0  0
 38 25  1  0  0  0  0
 38 39  2  0  0  0  0
 40 37  1  0  0  0  0
 41 37  1  0  0  0  0
M  END
>  <minimizedAffinity>
-3.26438093

$$$$
