
 OpenBabel10152418223D

 41 45  0  0  1  0  0  0  0  0999 V2000
    2.2270  -11.9550  -24.2450 C   0  0  0  0  0  0  0  0  0  0  0  0
    1.9130  -11.8390  -22.8850 C   0  0  0  0  0  3  0  0  0  0  0  0
    0.5890  -11.6990  -22.4730 C   0  0  0  0  0  3  0  0  0  0  0  0
   -0.4370  -11.6520  -23.4170 C   0  0  0  0  0  3  0  0  0  0  0  0
   -0.1500  -11.7240  -24.7810 C   0  0  0  0  0  0  0  0  0  0  0  0
    1.1810  -11.8970  -25.1830 C   0  0  0  0  0  3  0  0  0  0  0  0
   -1.1230  -11.6780  -25.7970 N   0  0  0  0  0  0  0  0  0  0  0  0
   -1.7590  -10.6340  -26.4060 C   0  0  0  0  0  0  0  0  0  0  0  0
   -2.7590  -10.8270  -27.0970 O   0  0  0  0  0  0  0  0  0  0  0  0
   -1.4490  -12.5730  -26.1470 H   0  0  0  0  0  0  0  0  0  0  0  0
   -1.1710   -9.2630  -26.3250 C   0  0  0  0  0  0  0  0  0  0  0  0
   -1.6960   -8.4010  -25.4370 C   0  0  0  0  0  3  0  0  0  0  0  0
   -1.1890   -6.9910  -25.2980 C   0  0  0  0  0  2  0  0  0  0  0  0
    0.2050   -6.7480  -25.9480 C   0  0  1  0  0  3  0  0  0  0  0  0
    0.5200   -7.6800  -27.0870 C   0  0  0  0  0  3  0  0  0  0  0  0
   -0.1360   -8.8390  -27.2510 C   0  0  0  0  0  3  0  0  0  0  0  0
    0.4240   -5.2940  -26.3230 N   0  0  0  0  0  4  0  0  0  0  0  0
    0.9960   -5.0460  -27.7200 C   0  0  0  0  0  2  0  0  0  0  0  0
    1.2780   -3.5470  -27.8820 C   0  0  0  0  0  2  0  0  0  0  0  0
    0.0910   -2.7740  -27.6640 O   0  0  0  0  0  0  0  0  0  0  0  0
   -0.4340   -2.9520  -26.3450 C   0  0  0  0  0  2  0  0  0  0  0  0
   -0.8070   -4.4190  -26.1000 C   0  0  0  0  0  2  0  0  0  0  0  0
    1.1330   -4.9540  -25.6640 H   0  0  0  0  0  0  0  0  0  0  0  0
    3.6840  -12.0050  -24.6610 C   0  0  0  0  0  2  0  0  0  0  0  0
    3.9950   -9.4130  -30.1650 C   0  0  0  0  0  0  0  0  0  0  0  0
    3.9210  -10.5500  -30.9870 C   0  0  0  0  0  3  0  0  0  0  0  0
    3.8480  -11.8070  -30.4080 C   0  0  0  0  0  3  0  0  0  0  0  0
    3.8540  -11.9160  -29.0200 C   0  0  0  0  0  3  0  0  0  0  0  0
    3.9380  -10.7680  -28.1860 C   0  0  0  0  0  0  0  0  0  0  0  0
    3.9450  -10.8100  -26.7760 C   0  0  0  0  0  0  0  0  0  0  0  0
    3.8310  -12.0300  -26.1060 N   0  0  0  0  0  0  0  0  0  0  0  0
    3.9870   -9.6940  -26.0300 N   0  0  0  0  0  0  0  0  0  0  0  0
    4.0370   -8.5330  -26.6820 C   0  0  0  0  0  3  0  0  0  0  0  0
    4.0330   -8.3810  -28.0060 N   0  0  0  0  0  0  0  0  0  0  0  0
    4.0030   -9.4890  -28.7660 C   0  0  0  0  0  0  0  0  0  0  0  0
    4.4140  -12.7730  -26.4690 H   0  0  0  0  0  0  0  0  0  0  0  0
    3.1120   -7.1990  -30.5190 N   0  0  0  0  0  0  0  0  0  0  0  0
    4.0950   -8.0980  -30.8310 C   0  0  0  0  0  0  0  0  0  0  0  0
    4.9690   -7.8410  -31.6450 O   0  0  0  0  0  0  0  0  0  0  0  0
    3.1580   -6.2900  -30.9620 H   0  0  0  0  0  0  0  0  0  0  0  0
    2.3930   -7.3710  -29.8310 H   0  0  0  0  0  0  0  0  0  0  0  0
  1  2  1  0  0  0  0
  2  3  2  0  0  0  0
  4  3  1  0  0  0  0
  5  4  2  0  0  0  0
  6  5  1  0  0  0  0
  6  1  2  0  0  0  0
  7  5  1  0  0  0  0
  8 11  1  0  0  0  0
  8  7  1  0  0  0  0
  9  8  2  0  0  0  0
 10  7  1  0  0  0  0
 11 12  2  0  0  0  0
 12 13  1  0  0  0  0
 14 15  1  6  0  0  0
 14 13  1  0  0  0  0
 16 15  2  0  0  0  0
 16 11  1  0  0  0  0
 17 22  1  0  0  0  0
 17 14  1  0  0  0  0
 17 23  1  0  0  0  0
 18 17  1  0  0  0  0
 19 18  1  0  0  0  0
 19 20  1  0  0  0  0
 20 21  1  0  0  0  0
 21 22  1  0  0  0  0
 24  1  1  0  0  0  0
 25 35  1  0  0  0  0
 26 27  1  0  0  0  0
 26 25  2  0  0  0  0
 27 28  2  0  0  0  0
 28 29  1  0  0  0  0
 29 30  1  0  0  0  0
 30 31  1  0  0  0  0
 30 32  2  0  0  0  0
 31 24  1  0  0  0  0
 33 32  1  0  0  0  0
 34 33  2  0  0  0  0
 35 29  2  0  0  0  0
 35 34  1  0  0  0  0
 36 31  1  0  0  0  0
 37 41  1  0  0  0  0
 38 37  1  0  0  0  0
 38 25  1  0  0  0  0
 39 38  2  0  0  0  0
 40 37  1  0  0  0  0
M  END
>  <minimizedAffinity>
-3.4832232

$$$$
