REMARK  Name = 
REMARK  6 active torsions:
REMARK  status: ('A' for Active; 'I' for Inactive)
REMARK    1  A    between atoms: C_2  and  C_4
REMARK    2  A    between atoms: N_10  and  C_11
REMARK    3  A    between atoms: C_11  and  C_12
REMARK    4  A    between atoms: C_16  and  N_17
REMARK    5  A    between atoms: C_18  and  C_20
REMARK    6  A    between atoms: C_23  and  N_24
REMARK                            x       y       z     vdW  Elec       q    Type
REMARK                         _______ _______ _______ _____ _____    ______ ____
ROOT
ATOM      1  C   UNL     1       2.622  -7.464   5.165  0.00  0.00    -0.029 A 
ATOM      2  C   UNL     1       2.388  -8.698   5.786  0.00  0.00    +0.005 A 
ATOM      3  C   UNL     1       3.450  -9.540   6.110  0.00  0.00    +0.002 A 
ATOM      4  C   UNL     1       4.759  -9.169   5.798  0.00  0.00    +0.023 A 
ATOM      5  C   UNL     1       5.017  -7.965   5.142  0.00  0.00    +0.034 A 
ATOM      6  C   UNL     1       3.946  -7.111   4.850  0.00  0.00    +0.028 A 
ENDROOT
BRANCH   5   7
ATOM      7  N   UNL     1       6.304  -7.519   4.786  0.00  0.00    -0.282 N 
ATOM      8  C   UNL     1       7.487  -8.181   4.619  0.00  0.00    +0.248 C 
ATOM      9  O   UNL     1       8.548  -7.562   4.550  0.00  0.00    -0.270 OA
ATOM     10  H   UNL     1       6.409  -6.520   4.642  0.00  0.00    +0.155 HD
BRANCH   8  11
ATOM     11  C   UNL     1       7.480  -9.660   4.406  0.00  0.00    +0.033 C 
ATOM     12  C   UNL     1       8.279 -10.415   5.180  0.00  0.00    -0.008 C 
ATOM     13  C   UNL     1       8.361 -11.909   5.025  0.00  0.00    +0.087 C 
ATOM     14  C   UNL     1       7.189 -12.530   4.209  0.00  0.00    +0.092 C 
ATOM     15  C   UNL     1       6.562 -11.583   3.221  0.00  0.00    +0.027 C 
ATOM     16  C   UNL     1       6.716 -10.254   3.324  0.00  0.00    +0.014 C 
BRANCH  14  17
ATOM     17  N   UNL     1       7.565 -13.854   3.570  0.00  0.00    +0.244 N 
ATOM     18  C   UNL     1       8.612 -13.783   2.458  0.00  0.00    +0.160 C 
ATOM     19  C   UNL     1       8.773 -15.177   1.837  0.00  0.00    +0.210 C 
ATOM     20  O   UNL     1       9.138 -16.143   2.830  0.00  0.00    -0.369 OA
ATOM     21  C   UNL     1       8.147 -16.263   3.856  0.00  0.00    +0.210 C 
ATOM     22  C   UNL     1       7.952 -14.928   4.584  0.00  0.00    +0.160 C 
ATOM     23  H   UNL     1       6.703 -14.188   3.124  0.00  0.00    +0.204 HD
ENDBRANCH  14  17
ENDBRANCH   8  11
ENDBRANCH   5   7
BRANCH   1  24
ATOM     24  C   UNL     1       1.436  -6.621   4.738  0.00  0.00    +0.138 C 
BRANCH  24  31
ATOM     25  C   UNL     1       1.057  -1.157   2.071  0.00  0.00    +0.063 A 
ATOM     26  C   UNL     1       2.168  -0.516   2.644  0.00  0.00    +0.015 A 
ATOM     27  C   UNL     1       2.939  -1.190   3.577  0.00  0.00    +0.002 A 
ATOM     28  C   UNL     1       2.591  -2.491   3.931  0.00  0.00    +0.013 A 
ATOM     29  C   UNL     1       1.462  -3.139   3.360  0.00  0.00    +0.041 A 
ATOM     30  C   UNL     1       1.059  -4.454   3.673  0.00  0.00    +0.130 A 
ATOM     31  N   UNL     1       1.801  -5.225   4.571  0.00  0.00    -0.324 N 
ATOM     32  N   UNL     1       0.006  -5.038   3.077  0.00  0.00    -0.220 NA
ATOM     33  C   UNL     1      -0.659  -4.311   2.180  0.00  0.00    +0.223 A 
ATOM     34  N   UNL     1      -0.363  -3.066   1.810  0.00  0.00    -0.235 NA
ATOM     35  C   UNL     1       0.681  -2.465   2.405  0.00  0.00    +0.088 A 
ATOM     36  H   UNL     1       2.078  -4.746   5.418  0.00  0.00    +0.148 HD
BRANCH  25  38
ATOM     37  N   UNL     1       0.928   0.058  -0.006  0.00  0.00    -0.325 N 
ATOM     38  C   UNL     1       0.254  -0.387   1.098  0.00  0.00    +0.244 C 
ATOM     39  O   UNL     1      -0.923  -0.120   1.286  0.00  0.00    -0.270 OA
ATOM     40  H   UNL     1       0.400   0.589  -0.688  0.00  0.00    +0.145 HD
ATOM     41  H   UNL     1       1.892  -0.167  -0.204  0.00  0.00    +0.145 HD
ENDBRANCH  25  38
ENDBRANCH  24  31
ENDBRANCH   1  24
TORSDOF 6
