
 OpenBabel10152419443D

 37 40  0  0  1  0  0  0  0  0999 V2000
    1.9120  -12.2790  -24.6920 C   0  0  2  0  0  3  0  0  0  0  0  0
    1.9640  -11.0880  -23.7280 C   0  0  0  0  0  1  0  0  0  0  0  0
    3.8950  -10.3830  -27.3780 C   0  0  0  0  0  0  0  0  0  0  0  0
    3.7290  -11.2320  -28.4780 C   0  0  0  0  0  3  0  0  0  0  0  0
    3.0760  -12.4530  -28.3390 C   0  0  0  0  0  3  0  0  0  0  0  0
    2.5230  -12.8060  -27.1110 C   0  0  0  0  0  3  0  0  0  0  0  0
    2.6220  -11.9460  -26.0040 C   0  0  0  0  0  0  0  0  0  0  0  0
    3.3550  -10.7460  -26.1400 C   0  0  0  0  0  3  0  0  0  0  0  0
    4.0080   -7.9070  -27.9090 C   0  0  0  0  0  0  0  0  0  0  0  0
    4.7210   -7.1020  -28.5140 O   0  0  0  0  0  0  0  0  0  0  0  0
    4.5100   -9.1460  -27.6320 N   0  0  0  0  0  0  0  0  0  0  0  0
    5.5200   -9.1590  -27.7090 H   0  0  0  0  0  0  0  0  0  0  0  0
   -0.6850   -5.4570  -25.5780 C   0  0  0  0  0  1  0  0  0  0  0  0
    0.1340   -6.4970  -26.3410 C   0  0  2  0  0  3  0  0  0  0  0  0
    1.1470   -7.1780  -25.3980 C   0  0  0  0  0  2  0  0  0  0  0  0
    2.3350   -7.7910  -26.0920 C   0  0  0  0  0  3  0  0  0  0  0  0
    2.6910   -7.4530  -27.3470 C   0  0  0  0  0  0  0  0  0  0  0  0
    1.9570   -6.4010  -28.0330 C   0  0  0  0  0  3  0  0  0  0  0  0
    0.7850   -5.9380  -27.5760 C   0  0  0  0  0  0  0  0  0  0  0  0
    0.1670   -4.9540  -28.2650 F   0  0  0  0  0  0  0  0  0  0  0  0
    0.5200  -12.6270  -24.9420 N   0  0  0  0  0  0  0  0  0  0  0  0
    0.2290  -13.5890  -24.9280 H   0  0  0  0  0  0  0  0  0  0  0  0
   -0.4150  -11.6050  -24.9560 C   0  0  0  0  0  0  0  0  0  0  0  0
   -0.5980  -10.9800  -26.1280 N   0  0  0  0  0  0  0  0  0  0  0  0
   -1.3180   -9.8630  -26.1020 C   0  0  0  0  0  3  0  0  0  0  0  0
   -1.7590   -9.2450  -25.0060 N   0  0  0  0  0  0  0  0  0  0  0  0
   -1.5930   -9.8810  -23.8310 C   0  0  0  0  0  0  0  0  0  0  0  0
   -1.9900   -9.3010  -22.6230 C   0  0  0  0  0  0  0  0  0  0  0  0
   -1.9730   -9.9870  -21.4020 C   0  0  0  0  0  3  0  0  0  0  0  0
   -1.4740  -11.2780  -21.3570 C   0  0  0  0  0  3  0  0  0  0  0  0
   -0.9490  -11.8380  -22.5180 C   0  0  0  0  0  3  0  0  0  0  0  0
   -0.9920  -11.1450  -23.7590 C   0  0  0  0  0  0  0  0  0  0  0  0
   -2.3150   -7.8640  -22.5600 C   0  0  0  0  0  0  0  0  0  0  0  0
   -3.6160   -7.5560  -22.8510 N   0  0  0  0  0  0  0  0  0  0  0  0
   -1.4580   -7.0120  -22.3820 O   0  0  0  0  0  0  0  0  0  0  0  0
   -3.8890   -6.5830  -22.8700 H   0  0  0  0  0  0  0  0  0  0  0  0
   -4.3150   -8.2630  -23.0400 H   0  0  0  0  0  0  0  0  0  0  0  0
  1  2  1  1  0  0  0
  3  8  1  0  0  0  0
  4  5  1  0  0  0  0
  4  3  2  0  0  0  0
  5  6  2  0  0  0  0
  6  7  1  0  0  0  0
  7  1  1  0  0  0  0
  8  7  2  0  0  0  0
  9 11  1  0  0  0  0
  9 17  1  0  0  0  0
 10  9  2  0  0  0  0
 11  3  1  0  0  0  0
 12 11  1  0  0  0  0
 14 13  1  1  0  0  0
 14 15  1  0  0  0  0
 16 15  1  0  0  0  0
 17 16  2  0  0  0  0
 18 19  2  0  0  0  0
 18 17  1  0  0  0  0
 19 14  1  0  0  0  0
 20 19  1  0  0  0  0
 21 22  1  0  0  0  0
 21  1  1  0  0  0  0
 23 21  1  0  0  0  0
 23 32  1  0  0  0  0
 24 25  1  0  0  0  0
 24 23  2  0  0  0  0
 25 26  2  0  0  0  0
 26 27  1  0  0  0  0
 27 32  2  0  0  0  0
 27 28  1  0  0  0  0
 28 33  1  0  0  0  0
 28 29  2  0  0  0  0
 29 30  1  0  0  0  0
 31 30  2  0  0  0  0
 32 31  1  0  0  0  0
 33 35  2  0  0  0  0
 34 33  1  0  0  0  0
 36 34  1  0  0  0  0
 37 34  1  0  0  0  0
M  END
>  <minimizedAffinity>
-9.83198357

$$$$
