
 OpenBabel10152419443D

 37 40  0  0  1  0  0  0  0  0999 V2000
    1.9120  -12.2790  -24.6920 C   0  0  2  0  0  3  0  0  0  0  0  0
    1.9640  -11.0880  -23.7280 C   0  0  0  0  0  1  0  0  0  0  0  0
    3.8950  -10.3830  -27.3780 C   0  0  0  0  0  0  0  0  0  0  0  0
    3.7290  -11.2320  -28.4780 C   0  0  0  0  0  3  0  0  0  0  0  0
    3.0760  -12.4530  -28.3390 C   0  0  0  0  0  3  0  0  0  0  0  0
    2.5230  -12.8060  -27.1110 C   0  0  0  0  0  3  0  0  0  0  0  0
    2.6220  -11.9460  -26.0040 C   0  0  0  0  0  0  0  0  0  0  0  0
    3.3550  -10.7460  -26.1400 C   0  0  0  0  0  3  0  0  0  0  0  0
    4.0080   -7.9070  -27.9090 C   0  0  0  0  0  0  0  0  0  0  0  0
    4.7210   -7.1020  -28.5140 O   0  0  0  0  0  0  0  0  0  0  0  0
    4.5100   -9.1460  -27.6320 N   0  0  0  0  0  0  0  0  0  0  0  0
    5.5200   -9.1590  -27.7090 H   0  0  0  0  0  0  0  0  0  0  0  0
   -0.6850   -5.4570  -25.5780 C   0  0  0  0  0  1  0  0  0  0  0  0
    0.1340   -6.4970  -26.3410 C   0  0  2  0  0  3  0  0  0  0  0  0
    1.1470   -7.1780  -25.3980 C   0  0  0  0  0  2  0  0  0  0  0  0
    2.3350   -7.7910  -26.0920 C   0  0  0  0  0  3  0  0  0  0  0  0
    2.6910   -7.4530  -27.3470 C   0  0  0  0  0  0  0  0  0  0  0  0
    1.9570   -6.4010  -28.0330 C   0  0  0  0  0  3  0  0  0  0  0  0
    0.7850   -5.9380  -27.5760 C   0  0  0  0  0  0  0  0  0  0  0  0
    0.1670   -4.9540  -28.2650 F   0  0  0  0  0  0  0  0  0  0  0  0
    0.5200  -12.6270  -24.9420 N   0  0  0  0  0  0  0  0  0  0  0  0
    0.2290  -13.5890  -24.9280 H   0  0  0  0  0  0  0  0  0  0  0  0
   -0.4150  -11.6050  -24.9560 C   0  0  0  0  0  0  0  0  0  0  0  0
   -0.5980  -10.9800  -26.1280 N   0  0  0  0  0  0  0  0  0  0  0  0
   -1.3180   -9.8630  -26.1020 C   0  0  0  0  0  3  0  0  0  0  0  0
   -1.7590   -9.2450  -25.0060 N   0  0  0  0  0  0  0  0  0  0  0  0
   -1.5930   -9.8810  -23.8310 C   0  0  0  0  0  0  0  0  0  0  0  0
   -1.9900   -9.3010  -22.6230 C   0  0  0  0  0  0  0  0  0  0  0  0
   -1.9730   -9.9870  -21.4020 C   0  0  0  0  0  3  0  0  0  0  0  0
   -1.4740  -11.2780  -21.3570 C   0  0  0  0  0  3  0  0  0  0  0  0
   -0.9490  -11.8380  -22.5180 C   0  0  0  0  0  3  0  0  0  0  0  0
   -0.9920  -11.1450  -23.7590 C   0  0  0  0  0  0  0  0  0  0  0  0
   -2.3150   -7.8640  -22.5600 C   0  0  0  0  0  0  0  0  0  0  0  0
   -3.6160   -7.5560  -22.8510 N   0  0  0  0  0  0  0  0  0  0  0  0
   -1.4580   -7.0120  -22.3820 O   0  0  0  0  0  0  0  0  0  0  0  0
   -3.8890   -6.5830  -22.8700 H   0  0  0  0  0  0  0  0  0  0  0  0
   -4.3150   -8.2630  -23.0400 H   0  0  0  0  0  0  0  0  0  0  0  0
  1  2  1  1  0  0  0
  3  8  1  0  0  0  0
  4  5  1  0  0  0  0
  4  3  2  0  0  0  0
  5  6  2  0  0  0  0
  6  7  1  0  0  0  0
  7  1  1  0  0  0  0
  8  7  2  0  0  0  0
  9 11  1  0  0  0  0
  9 17  1  0  0  0  0
 10  9  2  0  0  0  0
 11  3  1  0  0  0  0
 12 11  1  0  0  0  0
 14 13  1  1  0  0  0
 14 15  1  0  0  0  0
 16 15  1  0  0  0  0
 17 16  2  0  0  0  0
 18 19  2  0  0  0  0
 18 17  1  0  0  0  0
 19 14  1  0  0  0  0
 20 19  1  0  0  0  0
 21 22  1  0  0  0  0
 21  1  1  0  0  0  0
 23 21  1  0  0  0  0
 23 32  1  0  0  0  0
 24 25  1  0  0  0  0
 24 23  2  0  0  0  0
 25 26  2  0  0  0  0
 26 27  1  0  0  0  0
 27 32  2  0  0  0  0
 27 28  1  0  0  0  0
 28 33  1  0  0  0  0
 28 29  2  0  0  0  0
 29 30  1  0  0  0  0
 31 30  2  0  0  0  0
 32 31  1  0  0  0  0
 33 35  2  0  0  0  0
 34 33  1  0  0  0  0
 36 34  1  0  0  0  0
 37 34  1  0  0  0  0
M  END
>  <minimizedAffinity>
-9.83198357

$$$$

 OpenBabel10152419443D

 37 40  0  0  1  0  0  0  0  0999 V2000
   -1.7370   -9.6460  -23.2110 C   0  0  2  0  0  3  0  0  0  0  0  0
   -0.8640   -9.1970  -22.0330 C   0  0  0  0  0  1  0  0  0  0  0  0
    1.2150  -11.4120  -24.9190 C   0  0  0  0  0  0  0  0  0  0  0  0
    0.6620  -11.6970  -26.1730 C   0  0  0  0  0  3  0  0  0  0  0  0
   -0.6760  -11.4210  -26.4370 C   0  0  0  0  0  3  0  0  0  0  0  0
   -1.4570  -10.7940  -25.4710 C   0  0  0  0  0  3  0  0  0  0  0  0
   -0.9130  -10.4410  -24.2250 C   0  0  0  0  0  0  0  0  0  0  0  0
    0.4240  -10.7980  -23.9420 C   0  0  0  0  0  3  0  0  0  0  0  0
    3.6610  -11.4360  -25.5780 C   0  0  0  0  0  0  0  0  0  0  0  0
    4.6730  -12.1260  -25.4290 O   0  0  0  0  0  0  0  0  0  0  0  0
    2.5870  -11.6680  -24.7680 N   0  0  0  0  0  0  0  0  0  0  0  0
    2.8530  -12.1960  -23.9460 H   0  0  0  0  0  0  0  0  0  0  0  0
    3.0050   -7.0150  -29.2500 C   0  0  0  0  0  1  0  0  0  0  0  0
    3.7110   -7.9240  -28.2460 C   0  0  2  0  0  3  0  0  0  0  0  0
    3.8800   -9.3410  -28.8310 C   0  0  0  0  0  2  0  0  0  0  0  0
    4.0480  -10.4290  -27.8030 C   0  0  0  0  0  3  0  0  0  0  0  0
    3.6990  -10.2600  -26.5110 C   0  0  0  0  0  0  0  0  0  0  0  0
    3.0630   -9.0170  -26.1060 C   0  0  0  0  0  3  0  0  0  0  0  0
    3.0460   -7.9360  -26.8970 C   0  0  0  0  0  0  0  0  0  0  0  0
    2.4280   -6.8200  -26.4520 F   0  0  0  0  0  0  0  0  0  0  0  0
   -2.3220   -8.4710  -23.8430 N   0  0  0  0  0  0  0  0  0  0  0  0
   -3.3090   -8.4340  -24.0250 H   0  0  0  0  0  0  0  0  0  0  0  0
   -1.5370   -7.3340  -23.9580 C   0  0  0  0  0  0  0  0  0  0  0  0
   -1.4290   -6.5700  -22.8610 N   0  0  0  0  0  0  0  0  0  0  0  0
   -0.8710   -5.3750  -23.0210 C   0  0  0  0  0  3  0  0  0  0  0  0
   -0.5340   -4.8210  -24.1850 N   0  0  0  0  0  0  0  0  0  0  0  0
   -0.6230   -5.5940  -25.2840 C   0  0  0  0  0  0  0  0  0  0  0  0
   -0.3250   -5.0950  -26.5550 C   0  0  0  0  0  0  0  0  0  0  0  0
   -0.2620   -5.9020  -27.6990 C   0  0  0  0  0  3  0  0  0  0  0  0
   -0.5770   -7.2460  -27.5980 C   0  0  0  0  0  3  0  0  0  0  0  0
   -1.0050   -7.7480  -26.3720 C   0  0  0  0  0  3  0  0  0  0  0  0
   -1.0440   -6.9280  -25.2110 C   0  0  0  0  0  0  0  0  0  0  0  0
   -0.2030   -3.6420  -26.7740 C   0  0  0  0  0  0  0  0  0  0  0  0
   -1.1870   -2.8890  -26.1930 N   0  0  0  0  0  0  0  0  0  0  0  0
    0.6400   -3.1660  -27.5200 O   0  0  0  0  0  0  0  0  0  0  0  0
   -1.1840   -1.8900  -26.3470 H   0  0  0  0  0  0  0  0  0  0  0  0
   -1.9100   -3.2920  -25.6110 H   0  0  0  0  0  0  0  0  0  0  0  0
  1  2  1  1  0  0  0
  3 11  1  0  0  0  0
  3  8  1  0  0  0  0
  4  3  2  0  0  0  0
  5  4  1  0  0  0  0
  5  6  2  0  0  0  0
  6  7  1  0  0  0  0
  7  8  2  0  0  0  0
  7  1  1  0  0  0  0
  9 10  2  0  0  0  0
  9 11  1  0  0  0  0
 11 12  1  0  0  0  0
 14 13  1  6  0  0  0
 14 19  1  0  0  0  0
 15 14  1  0  0  0  0
 15 16  1  0  0  0  0
 16 17  2  0  0  0  0
 17 18  1  0  0  0  0
 17  9  1  0  0  0  0
 19 20  1  0  0  0  0
 19 18  2  0  0  0  0
 21  1  1  0  0  0  0
 22 21  1  0  0  0  0
 23 21  1  0  0  0  0
 23 24  1  0  0  0  0
 25 24  2  0  0  0  0
 26 25  1  0  0  0  0
 27 32  1  0  0  0  0
 27 26  2  0  0  0  0
 28 27  1  0  0  0  0
 29 30  1  0  0  0  0
 29 28  2  0  0  0  0
 30 31  2  0  0  0  0
 31 32  1  0  0  0  0
 32 23  2  0  0  0  0
 33 28  1  0  0  0  0
 33 34  1  0  0  0  0
 34 37  1  0  0  0  0
 35 33  2  0  0  0  0
 36 34  1  0  0  0  0
M  END
>  <minimizedAffinity>
-9.50540924

$$$$

 OpenBabel10152419443D

 37 40  0  0  1  0  0  0  0  0999 V2000
    2.8010   -9.9710  -26.0030 C   0  0  2  0  0  3  0  0  0  0  0  0
    2.0150   -9.1880  -24.9440 C   0  0  0  0  0  1  0  0  0  0  0  0
    3.0150   -6.9210  -28.3270 C   0  0  0  0  0  0  0  0  0  0  0  0
    3.6800   -7.4740  -29.4270 C   0  0  0  0  0  3  0  0  0  0  0  0
    4.1510   -8.7830  -29.3870 C   0  0  0  0  0  3  0  0  0  0  0  0
    3.8990   -9.5750  -28.2700 C   0  0  0  0  0  3  0  0  0  0  0  0
    3.1800   -9.0660  -27.1760 C   0  0  0  0  0  0  0  0  0  0  0  0
    2.7770   -7.7120  -27.1980 C   0  0  0  0  0  3  0  0  0  0  0  0
    1.2820   -5.0730  -28.3190 C   0  0  0  0  0  0  0  0  0  0  0  0
    1.0030   -4.0360  -28.9270 O   0  0  0  0  0  0  0  0  0  0  0  0
    2.5220   -5.6160  -28.4860 N   0  0  0  0  0  0  0  0  0  0  0  0
    3.1700   -4.9420  -28.8760 H   0  0  0  0  0  0  0  0  0  0  0  0
   -1.7430   -7.4410  -23.9940 C   0  0  0  0  0  1  0  0  0  0  0  0
   -1.4780   -6.5700  -25.2210 C   0  0  2  0  0  3  0  0  0  0  0  0
   -1.1330   -7.4510  -26.4390 C   0  0  0  0  0  2  0  0  0  0  0  0
   -0.3480   -6.7510  -27.5170 C   0  0  0  0  0  3  0  0  0  0  0  0
    0.3260   -5.6060  -27.2900 C   0  0  0  0  0  0  0  0  0  0  0  0
    0.3680   -5.0640  -25.9410 C   0  0  0  0  0  3  0  0  0  0  0  0
   -0.4450   -5.5050  -24.9720 C   0  0  0  0  0  0  0  0  0  0  0  0
   -0.3400   -4.9570  -23.7410 F   0  0  0  0  0  0  0  0  0  0  0  0
    1.9900  -11.0890  -26.4660 N   0  0  0  0  0  0  0  0  0  0  0  0
    2.4000  -11.8090  -27.0340 H   0  0  0  0  0  0  0  0  0  0  0  0
    0.7300  -11.2530  -25.9130 C   0  0  0  0  0  0  0  0  0  0  0  0
   -0.2930  -10.7080  -26.5880 N   0  0  0  0  0  0  0  0  0  0  0  0
   -1.4640  -10.6650  -25.9610 C   0  0  0  0  0  3  0  0  0  0  0  0
   -1.6780  -10.9910  -24.6860 N   0  0  0  0  0  0  0  0  0  0  0  0
   -0.6580  -11.5570  -24.0150 C   0  0  0  0  0  0  0  0  0  0  0  0
   -0.7730  -11.9030  -22.6650 C   0  0  0  0  0  0  0  0  0  0  0  0
    0.2090  -12.6260  -21.9740 C   0  0  0  0  0  3  0  0  0  0  0  0
    1.3870  -12.9590  -22.6210 C   0  0  0  0  0  3  0  0  0  0  0  0
    1.5880  -12.5150  -23.9250 C   0  0  0  0  0  3  0  0  0  0  0  0
    0.5780  -11.8030  -24.6280 C   0  0  0  0  0  0  0  0  0  0  0  0
   -1.8920  -11.3860  -21.8580 C   0  0  0  0  0  0  0  0  0  0  0  0
   -2.0010  -10.0220  -21.8330 N   0  0  0  0  0  0  0  0  0  0  0  0
   -2.5870  -12.1170  -21.1680 O   0  0  0  0  0  0  0  0  0  0  0  0
   -2.7210   -9.6050  -21.2580 H   0  0  0  0  0  0  0  0  0  0  0  0
   -1.3960   -9.4170  -22.3730 H   0  0  0  0  0  0  0  0  0  0  0  0
  1  2  1  1  0  0  0
  3  8  1  0  0  0  0
  4  5  1  0  0  0  0
  4  3  2  0  0  0  0
  5  6  2  0  0  0  0
  6  7  1  0  0  0  0
  7  1  1  0  0  0  0
  8  7  2  0  0  0  0
  9 17  1  0  0  0  0
 10  9  2  0  0  0  0
 11  3  1  0  0  0  0
 11  9  1  0  0  0  0
 12 11  1  0  0  0  0
 14 19  1  0  0  0  0
 14 13  1  1  0  0  0
 15 14  1  0  0  0  0
 16 17  2  0  0  0  0
 16 15  1  0  0  0  0
 17 18  1  0  0  0  0
 18 19  2  0  0  0  0
 19 20  1  0  0  0  0
 21  1  1  0  0  0  0
 21 23  1  0  0  0  0
 22 21  1  0  0  0  0
 23 32  1  0  0  0  0
 24 25  1  0  0  0  0
 24 23  2  0  0  0  0
 25 26  2  0  0  0  0
 26 27  1  0  0  0  0
 27 28  1  0  0  0  0
 28 29  2  0  0  0  0
 28 33  1  0  0  0  0
 30 29  1  0  0  0  0
 31 30  2  0  0  0  0
 32 27  2  0  0  0  0
 32 31  1  0  0  0  0
 33 34  1  0  0  0  0
 33 35  2  0  0  0  0
 34 36  1  0  0  0  0
 37 34  1  0  0  0  0
M  END
>  <minimizedAffinity>
-9.45356846

$$$$

 OpenBabel10152419443D

 37 40  0  0  1  0  0  0  0  0999 V2000
    0.3270   -7.7390  -23.8680 C   0  0  2  0  0  3  0  0  0  0  0  0
    0.2270   -6.2180  -24.0400 C   0  0  0  0  0  1  0  0  0  0  0  0
    2.7120   -8.1690  -26.8470 C   0  0  0  0  0  0  0  0  0  0  0  0
    3.1480   -9.4840  -26.6480 C   0  0  0  0  0  3  0  0  0  0  0  0
    2.7650  -10.1940  -25.5140 C   0  0  0  0  0  3  0  0  0  0  0  0
    1.8860   -9.6180  -24.6010 C   0  0  0  0  0  3  0  0  0  0  0  0
    1.3830   -8.3230  -24.8060 C   0  0  0  0  0  0  0  0  0  0  0  0
    1.8410   -7.5850  -25.9200 C   0  0  0  0  0  3  0  0  0  0  0  0
    2.4450   -6.7270  -28.9140 C   0  0  0  0  0  0  0  0  0  0  0  0
    2.8200   -6.6800  -30.0880 O   0  0  0  0  0  0  0  0  0  0  0  0
    3.0980   -7.5580  -28.0500 N   0  0  0  0  0  0  0  0  0  0  0  0
    4.0030   -7.8300  -28.4160 H   0  0  0  0  0  0  0  0  0  0  0  0
   -1.1180   -2.9550  -26.3560 C   0  0  0  0  0  1  0  0  0  0  0  0
   -0.5190   -3.7870  -27.4880 C   0  0  2  0  0  3  0  0  0  0  0  0
   -0.7320   -5.2910  -27.2200 C   0  0  0  0  0  2  0  0  0  0  0  0
    0.2390   -6.1980  -27.9290 C   0  0  0  0  0  3  0  0  0  0  0  0
    1.4090   -5.7530  -28.4290 C   0  0  0  0  0  0  0  0  0  0  0  0
    1.7920   -4.3670  -28.2090 C   0  0  0  0  0  3  0  0  0  0  0  0
    0.9220   -3.4510  -27.7630 C   0  0  0  0  0  0  0  0  0  0  0  0
    1.3550   -2.1850  -27.5760 F   0  0  0  0  0  0  0  0  0  0  0  0
   -0.9760   -8.3330  -24.1380 N   0  0  0  0  0  0  0  0  0  0  0  0
   -1.3050   -8.4180  -25.0840 H   0  0  0  0  0  0  0  0  0  0  0  0
   -1.6240   -8.9830  -23.1010 C   0  0  0  0  0  0  0  0  0  0  0  0
   -2.3500   -8.2140  -22.2760 N   0  0  0  0  0  0  0  0  0  0  0  0
   -2.7880   -8.7860  -21.1600 C   0  0  0  0  0  3  0  0  0  0  0  0
   -2.4620  -10.0050  -20.7280 N   0  0  0  0  0  0  0  0  0  0  0  0
   -1.7500  -10.7840  -21.5640 C   0  0  0  0  0  0  0  0  0  0  0  0
   -1.3310  -12.0640  -21.1900 C   0  0  0  0  0  0  0  0  0  0  0  0
   -0.7210  -12.9590  -22.0790 C   0  0  0  0  0  3  0  0  0  0  0  0
   -0.4470  -12.5500  -23.3730 C   0  0  0  0  0  3  0  0  0  0  0  0
   -0.7330  -11.2370  -23.7380 C   0  0  0  0  0  3  0  0  0  0  0  0
   -1.3740  -10.3420  -22.8390 C   0  0  0  0  0  0  0  0  0  0  0  0
   -1.3840  -12.4820  -19.7770 C   0  0  0  0  0  0  0  0  0  0  0  0
   -2.6360  -12.7790  -19.3120 N   0  0  0  0  0  0  0  0  0  0  0  0
   -0.4010  -12.4430  -19.0520 O   0  0  0  0  0  0  0  0  0  0  0  0
   -2.7430  -13.0260  -18.3380 H   0  0  0  0  0  0  0  0  0  0  0  0
   -3.4550  -12.7680  -19.9070 H   0  0  0  0  0  0  0  0  0  0  0  0
  1  2  1  6  0  0  0
  3  4  2  0  0  0  0
  3  8  1  0  0  0  0
  4  5  1  0  0  0  0
  5  6  2  0  0  0  0
  7  6  1  0  0  0  0
  7  1  1  0  0  0  0
  8  7  2  0  0  0  0
  9 17  1  0  0  0  0
  9 11  1  0  0  0  0
 10  9  2  0  0  0  0
 11  3  1  0  0  0  0
 12 11  1  0  0  0  0
 14 15  1  0  0  0  0
 14 13  1  1  0  0  0
 16 15  1  0  0  0  0
 17 18  1  0  0  0  0
 17 16  2  0  0  0  0
 18 19  2  0  0  0  0
 19 20  1  0  0  0  0
 19 14  1  0  0  0  0
 21  1  1  0  0  0  0
 21 23  1  0  0  0  0
 22 21  1  0  0  0  0
 23 32  2  0  0  0  0
 23 24  1  0  0  0  0
 24 25  2  0  0  0  0
 25 26  1  0  0  0  0
 27 28  1  0  0  0  0
 27 26  2  0  0  0  0
 28 33  1  0  0  0  0
 29 28  2  0  0  0  0
 30 29  1  0  0  0  0
 31 30  2  0  0  0  0
 31 32  1  0  0  0  0
 32 27  1  0  0  0  0
 33 34  1  0  0  0  0
 33 35  2  0  0  0  0
 34 36  1  0  0  0  0
 37 34  1  0  0  0  0
M  END
>  <minimizedAffinity>
-9.05630589

$$$$

 OpenBabel10152419443D

 37 40  0  0  1  0  0  0  0  0999 V2000
   -0.6630   -6.7820  -24.8420 C   0  0  2  0  0  3  0  0  0  0  0  0
   -0.1620   -5.4210  -24.3420 C   0  0  0  0  0  1  0  0  0  0  0  0
   -1.5270   -9.3020  -22.0760 C   0  0  0  0  0  0  0  0  0  0  0  0
   -2.8830   -9.0200  -21.8760 C   0  0  0  0  0  3  0  0  0  0  0  0
   -3.4940   -7.9630  -22.5450 C   0  0  0  0  0  3  0  0  0  0  0  0
   -2.7690   -7.2200  -23.4720 C   0  0  0  0  0  3  0  0  0  0  0  0
   -1.4220   -7.5190  -23.7380 C   0  0  0  0  0  0  0  0  0  0  0  0
   -0.7940   -8.5440  -22.9950 C   0  0  0  0  0  3  0  0  0  0  0  0
   -0.6730  -11.6760  -21.8320 C   0  0  0  0  0  0  0  0  0  0  0  0
   -0.6710  -12.6000  -21.0150 O   0  0  0  0  0  0  0  0  0  0  0  0
   -1.0170  -10.4260  -21.4060 N   0  0  0  0  0  0  0  0  0  0  0  0
   -0.9570  -10.3520  -20.3970 H   0  0  0  0  0  0  0  0  0  0  0  0
    1.6620  -11.8110  -27.1230 C   0  0  0  0  0  1  0  0  0  0  0  0
    1.0110  -12.3540  -25.8520 C   0  0  2  0  0  3  0  0  0  0  0  0
   -0.4160  -11.7890  -25.6980 C   0  0  0  0  0  2  0  0  0  0  0  0
   -0.9440  -11.7960  -24.2870 C   0  0  0  0  0  3  0  0  0  0  0  0
   -0.1350  -11.9100  -23.2150 C   0  0  0  0  0  0  0  0  0  0  0  0
    1.3050  -11.9470  -23.4140 C   0  0  0  0  0  3  0  0  0  0  0  0
    1.8510  -12.1360  -24.6240 C   0  0  0  0  0  0  0  0  0  0  0  0
    3.1980  -12.1490  -24.7290 F   0  0  0  0  0  0  0  0  0  0  0  0
    0.4770   -7.5720  -25.2880 N   0  0  0  0  0  0  0  0  0  0  0  0
    0.6100   -8.5060  -24.9420 H   0  0  0  0  0  0  0  0  0  0  0  0
    1.2180   -7.1010  -26.3590 C   0  0  0  0  0  0  0  0  0  0  0  0
    0.6670   -6.1100  -27.0760 N   0  0  0  0  0  0  0  0  0  0  0  0
    1.2590   -5.8070  -28.2260 C   0  0  0  0  0  3  0  0  0  0  0  0
    2.2630   -6.4810  -28.7880 N   0  0  0  0  0  0  0  0  0  0  0  0
    2.8290   -7.4610  -28.0610 C   0  0  0  0  0  0  0  0  0  0  0  0
    3.8650   -8.2470  -28.5750 C   0  0  0  0  0  0  0  0  0  0  0  0
    4.5790   -9.1730  -27.8020 C   0  0  0  0  0  3  0  0  0  0  0  0
    4.2080   -9.3870  -26.4860 C   0  0  0  0  0  3  0  0  0  0  0  0
    3.0970   -8.7160  -25.9820 C   0  0  0  0  0  3  0  0  0  0  0  0
    2.3930   -7.7600  -26.7640 C   0  0  0  0  0  0  0  0  0  0  0  0
    4.1610   -8.2370  -30.0190 C   0  0  0  0  0  0  0  0  0  0  0  0
    4.6360   -7.0470  -30.5000 N   0  0  0  0  0  0  0  0  0  0  0  0
    3.8840   -9.1800  -30.7450 O   0  0  0  0  0  0  0  0  0  0  0  0
    4.8120   -6.9630  -31.4920 H   0  0  0  0  0  0  0  0  0  0  0  0
    4.8230   -6.2530  -29.9020 H   0  0  0  0  0  0  0  0  0  0  0  0
  1  2  1  1  0  0  0
  1  7  1  0  0  0  0
  3  4  1  0  0  0  0
  3 11  1  0  0  0  0
  5  4  2  0  0  0  0
  6  5  1  0  0  0  0
  7  6  2  0  0  0  0
  7  8  1  0  0  0  0
  8  3  2  0  0  0  0
  9 11  1  0  0  0  0
  9 10  2  0  0  0  0
 11 12  1  0  0  0  0
 14 13  1  6  0  0  0
 14 15  1  0  0  0  0
 14 19  1  0  0  0  0
 15 16  1  0  0  0  0
 16 17  2  0  0  0  0
 17  9  1  0  0  0  0
 18 17  1  0  0  0  0
 19 18  2  0  0  0  0
 20 19  1  0  0  0  0
 21 22  1  0  0  0  0
 21  1  1  0  0  0  0
 23 21  1  0  0  0  0
 24 23  2  0  0  0  0
 25 24  1  0  0  0  0
 26 25  2  0  0  0  0
 26 27  1  0  0  0  0
 27 32  1  0  0  0  0
 28 27  2  0  0  0  0
 28 29  1  0  0  0  0
 29 30  2  0  0  0  0
 30 31  1  0  0  0  0
 32 23  1  0  0  0  0
 32 31  2  0  0  0  0
 33 28  1  0  0  0  0
 34 33  1  0  0  0  0
 34 37  1  0  0  0  0
 35 33  2  0  0  0  0
 36 34  1  0  0  0  0
M  END
>  <minimizedAffinity>
-8.96651649

$$$$

 OpenBabel10152419443D

 37 40  0  0  1  0  0  0  0  0999 V2000
    0.2350  -11.5680  -24.9610 C   0  0  2  0  0  3  0  0  0  0  0  0
   -0.5330  -12.8600  -25.2670 C   0  0  0  0  0  1  0  0  0  0  0  0
    3.2860  -10.0830  -26.7600 C   0  0  0  0  0  0  0  0  0  0  0  0
    3.5230  -11.0630  -27.7300 C   0  0  0  0  0  3  0  0  0  0  0  0
    2.7810  -12.2400  -27.7450 C   0  0  0  0  0  3  0  0  0  0  0  0
    1.7470  -12.4180  -26.8310 C   0  0  0  0  0  3  0  0  0  0  0  0
    1.4450  -11.4240  -25.8840 C   0  0  0  0  0  0  0  0  0  0  0  0
    2.2570  -10.2690  -25.8300 C   0  0  0  0  0  3  0  0  0  0  0  0
    3.7750   -7.6850  -27.4200 C   0  0  0  0  0  0  0  0  0  0  0  0
    4.7220   -6.9770  -27.7730 O   0  0  0  0  0  0  0  0  0  0  0  0
    4.0410   -8.9040  -26.8650 N   0  0  0  0  0  0  0  0  0  0  0  0
    5.0020   -8.9630  -26.5490 H   0  0  0  0  0  0  0  0  0  0  0  0
   -1.2930   -4.9190  -27.0720 C   0  0  0  0  0  1  0  0  0  0  0  0
   -0.2790   -5.9530  -27.5580 C   0  0  2  0  0  3  0  0  0  0  0  0
    0.1190   -6.8980  -26.4050 C   0  0  0  0  0  2  0  0  0  0  0  0
    1.4520   -7.5770  -26.5820 C   0  0  0  0  0  3  0  0  0  0  0  0
    2.3820   -7.1250  -27.4460 C   0  0  0  0  0  0  0  0  0  0  0  0
    2.1310   -5.8930  -28.1780 C   0  0  0  0  0  3  0  0  0  0  0  0
    0.9160   -5.3310  -28.2280 C   0  0  0  0  0  0  0  0  0  0  0  0
    0.7640   -4.1820  -28.9230 F   0  0  0  0  0  0  0  0  0  0  0  0
    0.6600  -11.5880  -23.5680 N   0  0  0  0  0  0  0  0  0  0  0  0
    1.6170  -11.7850  -23.3350 H   0  0  0  0  0  0  0  0  0  0  0  0
   -0.2160  -11.1010  -22.6120 C   0  0  0  0  0  0  0  0  0  0  0  0
   -0.7430  -12.0020  -21.7690 N   0  0  0  0  0  0  0  0  0  0  0  0
   -1.7440  -11.5860  -21.0020 C   0  0  0  0  0  3  0  0  0  0  0  0
   -2.3540  -10.4040  -21.0880 N   0  0  0  0  0  0  0  0  0  0  0  0
   -1.8150   -9.4920  -21.9180 C   0  0  0  0  0  0  0  0  0  0  0  0
   -2.3990   -8.2350  -22.1040 C   0  0  0  0  0  0  0  0  0  0  0  0
   -1.7920   -7.2090  -22.8400 C   0  0  0  0  0  3  0  0  0  0  0  0
   -0.5900   -7.4560  -23.4810 C   0  0  0  0  0  3  0  0  0  0  0  0
   -0.0460   -8.7360  -23.4250 C   0  0  0  0  0  3  0  0  0  0  0  0
   -0.6560   -9.7650  -22.6570 C   0  0  0  0  0  0  0  0  0  0  0  0
   -3.7760   -7.9800  -21.6430 C   0  0  0  0  0  0  0  0  0  0  0  0
   -3.9000   -7.7570  -20.2980 N   0  0  0  0  0  0  0  0  0  0  0  0
   -4.7400   -8.0850  -22.3870 O   0  0  0  0  0  0  0  0  0  0  0  0
   -4.8250   -7.6230  -19.9140 H   0  0  0  0  0  0  0  0  0  0  0  0
   -3.1030   -7.7140  -19.6770 H   0  0  0  0  0  0  0  0  0  0  0  0
  1  2  1  6  0  0  0
  1 21  1  0  0  0  0
  3  8  1  0  0  0  0
  4  3  2  0  0  0  0
  5  4  1  0  0  0  0
  5  6  2  0  0  0  0
  6  7  1  0  0  0  0
  7  8  2  0  0  0  0
  7  1  1  0  0  0  0
  9 11  1  0  0  0  0
 10  9  2  0  0  0  0
 11  3  1  0  0  0  0
 11 12  1  0  0  0  0
 14 13  1  1  0  0  0
 14 15  1  0  0  0  0
 16 15  1  0  0  0  0
 17  9  1  0  0  0  0
 17 16  2  0  0  0  0
 18 17  1  0  0  0  0
 19 18  2  0  0  0  0
 19 14  1  0  0  0  0
 20 19  1  0  0  0  0
 21 22  1  0  0  0  0
 21 23  1  0  0  0  0
 23 24  1  0  0  0  0
 24 25  2  0  0  0  0
 26 25  1  0  0  0  0
 27 26  2  0  0  0  0
 28 27  1  0  0  0  0
 28 33  1  0  0  0  0
 29 28  2  0  0  0  0
 30 31  2  0  0  0  0
 30 29  1  0  0  0  0
 31 32  1  0  0  0  0
 32 23  2  0  0  0  0
 32 27  1  0  0  0  0
 33 34  1  0  0  0  0
 34 36  1  0  0  0  0
 34 37  1  0  0  0  0
 35 33  2  0  0  0  0
M  END
>  <minimizedAffinity>
-8.94381905

$$$$

 OpenBabel10152419443D

 37 40  0  0  1  0  0  0  0  0999 V2000
    4.6720  -10.6010  -26.8160 C   0  0  2  0  0  3  0  0  0  0  0  0
    4.7220  -10.9750  -28.3020 C   0  0  0  0  0  1  0  0  0  0  0  0
    1.0150  -11.4380  -25.9930 C   0  0  0  0  0  0  0  0  0  0  0  0
    1.1670  -12.1330  -24.7890 C   0  0  0  0  0  3  0  0  0  0  0  0
    2.4350  -12.4250  -24.2940 C   0  0  0  0  0  3  0  0  0  0  0  0
    3.5630  -11.9630  -24.9660 C   0  0  0  0  0  3  0  0  0  0  0  0
    3.4390  -11.2090  -26.1450 C   0  0  0  0  0  0  0  0  0  0  0  0
    2.1490  -10.9880  -26.6770 C   0  0  0  0  0  3  0  0  0  0  0  0
   -1.4270  -10.8480  -25.6610 C   0  0  0  0  0  0  0  0  0  0  0  0
   -2.5270  -11.0490  -26.1830 O   0  0  0  0  0  0  0  0  0  0  0  0
   -0.3010  -11.1360  -26.3770 N   0  0  0  0  0  0  0  0  0  0  0  0
   -0.5050  -11.2170  -27.3660 H   0  0  0  0  0  0  0  0  0  0  0  0
   -1.8750   -8.4330  -20.4240 C   0  0  0  0  0  1  0  0  0  0  0  0
   -1.2080   -8.8600  -21.7300 C   0  0  2  0  0  3  0  0  0  0  0  0
   -1.8580   -8.1360  -22.9270 C   0  0  0  0  0  2  0  0  0  0  0  0
   -1.6880   -8.8350  -24.2500 C   0  0  0  0  0  3  0  0  0  0  0  0
   -1.3540  -10.1370  -24.3400 C   0  0  0  0  0  0  0  0  0  0  0  0
   -1.2310  -10.9230  -23.1230 C   0  0  0  0  0  3  0  0  0  0  0  0
   -1.1760  -10.3530  -21.9110 C   0  0  0  0  0  0  0  0  0  0  0  0
   -1.0690  -11.1520  -20.8260 F   0  0  0  0  0  0  0  0  0  0  0  0
    4.6520   -9.1500  -26.6920 N   0  0  0  0  0  0  0  0  0  0  0  0
    5.3900   -8.6750  -26.2010 H   0  0  0  0  0  0  0  0  0  0  0  0
    3.7420   -8.4420  -27.4590 C   0  0  0  0  0  0  0  0  0  0  0  0
    4.0600   -8.2660  -28.7500 N   0  0  0  0  0  0  0  0  0  0  0  0
    3.3130   -7.4070  -29.4360 C   0  0  0  0  0  3  0  0  0  0  0  0
    2.3710   -6.6130  -28.9260 N   0  0  0  0  0  0  0  0  0  0  0  0
    2.0380   -6.8030  -27.6360 C   0  0  0  0  0  0  0  0  0  0  0  0
    1.0860   -6.0000  -27.0010 C   0  0  0  0  0  0  0  0  0  0  0  0
    0.6050   -6.2580  -25.7100 C   0  0  0  0  0  3  0  0  0  0  0  0
    1.1370   -7.3110  -24.9860 C   0  0  0  0  0  3  0  0  0  0  0  0
    2.1800   -8.0500  -25.5400 C   0  0  0  0  0  3  0  0  0  0  0  0
    2.6460   -7.7970  -26.8590 C   0  0  0  0  0  0  0  0  0  0  0  0
    0.6450   -4.7370  -27.6210 C   0  0  0  0  0  0  0  0  0  0  0  0
    1.6040   -4.0910  -28.3540 N   0  0  0  0  0  0  0  0  0  0  0  0
   -0.4520   -4.2490  -27.3920 O   0  0  0  0  0  0  0  0  0  0  0  0
    1.3760   -3.1970  -28.7650 H   0  0  0  0  0  0  0  0  0  0  0  0
    2.5260   -4.4780  -28.5060 H   0  0  0  0  0  0  0  0  0  0  0  0
  1  2  1  6  0  0  0
  1 21  1  0  0  0  0
  1  7  1  0  0  0  0
  3  4  1  0  0  0  0
  4  5  2  0  0  0  0
  6  5  1  0  0  0  0
  7  6  2  0  0  0  0
  8  7  1  0  0  0  0
  8  3  2  0  0  0  0
  9 17  1  0  0  0  0
 10  9  2  0  0  0  0
 11  3  1  0  0  0  0
 11  9  1  0  0  0  0
 12 11  1  0  0  0  0
 14 13  1  1  0  0  0
 15 14  1  0  0  0  0
 16 15  1  0  0  0  0
 17 16  2  0  0  0  0
 17 18  1  0  0  0  0
 18 19  2  0  0  0  0
 19 14  1  0  0  0  0
 19 20  1  0  0  0  0
 21 22  1  0  0  0  0
 23 32  1  0  0  0  0
 23 21  1  0  0  0  0
 24 23  2  0  0  0  0
 25 26  2  0  0  0  0
 25 24  1  0  0  0  0
 26 27  1  0  0  0  0
 27 28  2  0  0  0  0
 27 32  1  0  0  0  0
 28 29  1  0  0  0  0
 29 30  2  0  0  0  0
 31 30  1  0  0  0  0
 32 31  2  0  0  0  0
 33 35  2  0  0  0  0
 33 28  1  0  0  0  0
 34 33  1  0  0  0  0
 36 34  1  0  0  0  0
 37 34  1  0  0  0  0
M  END
>  <minimizedAffinity>
-8.94308662

$$$$

 OpenBabel10152419443D

 37 40  0  0  1  0  0  0  0  0999 V2000
    3.2050   -8.8110  -26.1760 C   0  0  2  0  0  3  0  0  0  0  0  0
    2.5050   -8.5720  -24.8320 C   0  0  0  0  0  1  0  0  0  0  0  0
    1.4940   -5.7690  -27.7770 C   0  0  0  0  0  0  0  0  0  0  0  0
    1.8710   -5.9280  -29.1160 C   0  0  0  0  0  3  0  0  0  0  0  0
    2.7510   -6.9400  -29.4890 C   0  0  0  0  0  3  0  0  0  0  0  0
    3.2090   -7.8450  -28.5360 C   0  0  0  0  0  3  0  0  0  0  0  0
    2.7980   -7.7470  -27.1960 C   0  0  0  0  0  0  0  0  0  0  0  0
    1.9680   -6.6690  -26.8170 C   0  0  0  0  0  3  0  0  0  0  0  0
   -0.5820   -4.7380  -26.7520 C   0  0  0  0  0  0  0  0  0  0  0  0
   -1.4520   -3.9040  -27.0170 O   0  0  0  0  0  0  0  0  0  0  0  0
    0.5540   -4.7610  -27.5090 N   0  0  0  0  0  0  0  0  0  0  0  0
    0.6690   -3.8970  -28.0250 H   0  0  0  0  0  0  0  0  0  0  0  0
   -1.8710   -7.7500  -21.9850 C   0  0  0  0  0  1  0  0  0  0  0  0
   -1.0350   -7.2720  -23.1700 C   0  0  2  0  0  3  0  0  0  0  0  0
   -0.6960   -5.7750  -23.0200 C   0  0  0  0  0  2  0  0  0  0  0  0
   -0.3700   -5.0730  -24.3110 C   0  0  0  0  0  3  0  0  0  0  0  0
   -0.7140   -5.5770  -25.5130 C   0  0  0  0  0  0  0  0  0  0  0  0
   -1.4970   -6.8010  -25.5700 C   0  0  0  0  0  3  0  0  0  0  0  0
   -1.6680   -7.5860  -24.4980 C   0  0  0  0  0  0  0  0  0  0  0  0
   -2.4160   -8.7040  -24.6290 F   0  0  0  0  0  0  0  0  0  0  0  0
    2.8570  -10.1400  -26.6620 N   0  0  0  0  0  0  0  0  0  0  0  0
    3.5230  -10.6730  -27.1920 H   0  0  0  0  0  0  0  0  0  0  0  0
    1.7020  -10.7300  -26.1770 C   0  0  0  0  0  0  0  0  0  0  0  0
    0.5500  -10.3410  -26.7430 N   0  0  0  0  0  0  0  0  0  0  0  0
   -0.5700  -10.7270  -26.1410 C   0  0  0  0  0  3  0  0  0  0  0  0
   -0.6480  -11.3480  -24.9640 N   0  0  0  0  0  0  0  0  0  0  0  0
    0.5060  -11.7560  -24.4050 C   0  0  0  0  0  0  0  0  0  0  0  0
    0.5310  -12.3860  -23.1570 C   0  0  0  0  0  0  0  0  0  0  0  0
    1.6890  -12.9560  -22.6110 C   0  0  0  0  0  3  0  0  0  0  0  0
    2.8890  -12.8390  -23.2910 C   0  0  0  0  0  3  0  0  0  0  0  0
    2.9230  -12.1040  -24.4740 C   0  0  0  0  0  3  0  0  0  0  0  0
    1.7410  -11.5490  -25.0340 C   0  0  0  0  0  0  0  0  0  0  0  0
   -0.6530  -12.3470  -22.2800 C   0  0  0  0  0  0  0  0  0  0  0  0
   -1.6850  -11.5760  -22.7420 N   0  0  0  0  0  0  0  0  0  0  0  0
   -0.6580  -12.8630  -21.1720 O   0  0  0  0  0  0  0  0  0  0  0  0
   -2.5070  -11.4720  -22.1620 H   0  0  0  0  0  0  0  0  0  0  0  0
   -1.6600  -11.1140  -23.6410 H   0  0  0  0  0  0  0  0  0  0  0  0
  1  2  1  1  0  0  0
  3 11  1  0  0  0  0
  3  8  1  0  0  0  0
  4  3  2  0  0  0  0
  5  4  1  0  0  0  0
  5  6  2  0  0  0  0
  6  7  1  0  0  0  0
  7  8  2  0  0  0  0
  7  1  1  0  0  0  0
  9 17  1  0  0  0  0
 10  9  2  0  0  0  0
 11  9  1  0  0  0  0
 12 11  1  0  0  0  0
 14 15  1  0  0  0  0
 14 13  1  1  0  0  0
 16 15  1  0  0  0  0
 17 16  2  0  0  0  0
 18 17  1  0  0  0  0
 18 19  2  0  0  0  0
 19 14  1  0  0  0  0
 20 19  1  0  0  0  0
 21 23  1  0  0  0  0
 21  1  1  0  0  0  0
 22 21  1  0  0  0  0
 23 32  1  0  0  0  0
 24 23  2  0  0  0  0
 24 25  1  0  0  0  0
 25 26  2  0  0  0  0
 26 27  1  0  0  0  0
 27 28  1  0  0  0  0
 28 29  2  0  0  0  0
 28 33  1  0  0  0  0
 30 29  1  0  0  0  0
 31 30  2  0  0  0  0
 32 31  1  0  0  0  0
 32 27  2  0  0  0  0
 33 35  2  0  0  0  0
 34 33  1  0  0  0  0
 34 36  1  0  0  0  0
 37 34  1  0  0  0  0
M  END
>  <minimizedAffinity>
-8.25645542

$$$$

 OpenBabel10152419443D

 37 40  0  0  1  0  0  0  0  0999 V2000
    1.2660  -11.6390  -24.2150 C   0  0  2  0  0  3  0  0  0  0  0  0
    0.6710  -12.9590  -23.7080 C   0  0  0  0  0  1  0  0  0  0  0  0
   -1.0160   -8.5510  -24.2700 C   0  0  0  0  0  0  0  0  0  0  0  0
   -2.0000   -8.9660  -25.1740 C   0  0  0  0  0  3  0  0  0  0  0  0
   -1.8820  -10.1820  -25.8420 C   0  0  0  0  0  3  0  0  0  0  0  0
   -0.8110  -11.0250  -25.5600 C   0  0  0  0  0  3  0  0  0  0  0  0
    0.1590  -10.6620  -24.6110 C   0  0  0  0  0  0  0  0  0  0  0  0
    0.0690   -9.3920  -23.9990 C   0  0  0  0  0  3  0  0  0  0  0  0
   -0.7960   -6.0710  -23.7990 C   0  0  0  0  0  0  0  0  0  0  0  0
   -0.7930   -5.2860  -22.8460 O   0  0  0  0  0  0  0  0  0  0  0  0
   -1.2540   -7.3410  -23.5990 N   0  0  0  0  0  0  0  0  0  0  0  0
   -1.8060   -7.4040  -22.7520 H   0  0  0  0  0  0  0  0  0  0  0  0
    1.2410   -4.0590  -28.8250 C   0  0  0  0  0  1  0  0  0  0  0  0
    0.2370   -4.6780  -27.8540 C   0  0  2  0  0  3  0  0  0  0  0  0
   -0.1520   -3.6590  -26.7630 C   0  0  0  0  0  2  0  0  0  0  0  0
   -0.6750   -4.2720  -25.4910 C   0  0  0  0  0  3  0  0  0  0  0  0
   -0.4650   -5.5650  -25.1740 C   0  0  0  0  0  0  0  0  0  0  0  0
    0.3630   -6.3830  -26.0460 C   0  0  0  0  0  3  0  0  0  0  0  0
    0.7080   -5.9850  -27.2780 C   0  0  0  0  0  0  0  0  0  0  0  0
    1.4870   -6.7980  -28.0250 F   0  0  0  0  0  0  0  0  0  0  0  0
    2.1310  -11.9160  -25.3540 N   0  0  0  0  0  0  0  0  0  0  0  0
    2.0750  -12.8000  -25.8270 H   0  0  0  0  0  0  0  0  0  0  0  0
    2.8410  -10.8620  -25.9050 C   0  0  0  0  0  0  0  0  0  0  0  0
    2.8100   -9.7040  -25.2290 N   0  0  0  0  0  0  0  0  0  0  0  0
    3.2950   -8.6360  -25.8540 C   0  0  0  0  0  3  0  0  0  0  0  0
    3.6840   -8.5880  -27.1280 N   0  0  0  0  0  0  0  0  0  0  0  0
    3.7340   -9.7530  -27.8010 C   0  0  0  0  0  0  0  0  0  0  0  0
    4.0960   -9.8020  -29.1510 C   0  0  0  0  0  0  0  0  0  0  0  0
    4.3040  -11.0020  -29.8440 C   0  0  0  0  0  3  0  0  0  0  0  0
    4.0750  -12.2060  -29.1990 C   0  0  0  0  0  3  0  0  0  0  0  0
    3.5880  -12.1900  -27.8950 C   0  0  0  0  0  3  0  0  0  0  0  0
    3.4020  -10.9690  -27.1900 C   0  0  0  0  0  0  0  0  0  0  0  0
    4.1330   -8.5680  -29.9570 C   0  0  0  0  0  0  0  0  0  0  0  0
    3.9570   -8.7540  -31.3010 N   0  0  0  0  0  0  0  0  0  0  0  0
    4.4240   -7.4850  -29.4710 O   0  0  0  0  0  0  0  0  0  0  0  0
    4.0190   -7.9510  -31.9110 H   0  0  0  0  0  0  0  0  0  0  0  0
    3.7590   -9.6600  -31.7040 H   0  0  0  0  0  0  0  0  0  0  0  0
  1  2  1  6  0  0  0
  3  8  1  0  0  0  0
  3 11  1  0  0  0  0
  4  3  2  0  0  0  0
  5  6  2  0  0  0  0
  5  4  1  0  0  0  0
  6  7  1  0  0  0  0
  7  1  1  0  0  0  0
  7  8  2  0  0  0  0
  9 11  1  0  0  0  0
  9 10  2  0  0  0  0
 11 12  1  0  0  0  0
 14 13  1  1  0  0  0
 14 19  1  0  0  0  0
 14 15  1  0  0  0  0
 15 16  1  0  0  0  0
 16 17  2  0  0  0  0
 17  9  1  0  0  0  0
 18 17  1  0  0  0  0
 19 18  2  0  0  0  0
 20 19  1  0  0  0  0
 21  1  1  0  0  0  0
 22 21  1  0  0  0  0
 23 21  1  0  0  0  0
 23 24  1  0  0  0  0
 25 24  2  0  0  0  0
 26 25  1  0  0  0  0
 27 32  1  0  0  0  0
 27 26  2  0  0  0  0
 28 27  1  0  0  0  0
 29 30  1  0  0  0  0
 29 28  2  0  0  0  0
 30 31  2  0  0  0  0
 31 32  1  0  0  0  0
 32 23  2  0  0  0  0
 33 35  2  0  0  0  0
 33 28  1  0  0  0  0
 34 33  1  0  0  0  0
 36 34  1  0  0  0  0
 37 34  1  0  0  0  0
M  END
>  <minimizedAffinity>
-8.25382805

$$$$
