
 OpenBabel10152419443D

 37 40  0  0  1  0  0  0  0  0999 V2000
   -1.7370   -9.6460  -23.2110 C   0  0  2  0  0  3  0  0  0  0  0  0
   -0.8640   -9.1970  -22.0330 C   0  0  0  0  0  1  0  0  0  0  0  0
    1.2150  -11.4120  -24.9190 C   0  0  0  0  0  0  0  0  0  0  0  0
    0.6620  -11.6970  -26.1730 C   0  0  0  0  0  3  0  0  0  0  0  0
   -0.6760  -11.4210  -26.4370 C   0  0  0  0  0  3  0  0  0  0  0  0
   -1.4570  -10.7940  -25.4710 C   0  0  0  0  0  3  0  0  0  0  0  0
   -0.9130  -10.4410  -24.2250 C   0  0  0  0  0  0  0  0  0  0  0  0
    0.4240  -10.7980  -23.9420 C   0  0  0  0  0  3  0  0  0  0  0  0
    3.6610  -11.4360  -25.5780 C   0  0  0  0  0  0  0  0  0  0  0  0
    4.6730  -12.1260  -25.4290 O   0  0  0  0  0  0  0  0  0  0  0  0
    2.5870  -11.6680  -24.7680 N   0  0  0  0  0  0  0  0  0  0  0  0
    2.8530  -12.1960  -23.9460 H   0  0  0  0  0  0  0  0  0  0  0  0
    3.0050   -7.0150  -29.2500 C   0  0  0  0  0  1  0  0  0  0  0  0
    3.7110   -7.9240  -28.2460 C   0  0  2  0  0  3  0  0  0  0  0  0
    3.8800   -9.3410  -28.8310 C   0  0  0  0  0  2  0  0  0  0  0  0
    4.0480  -10.4290  -27.8030 C   0  0  0  0  0  3  0  0  0  0  0  0
    3.6990  -10.2600  -26.5110 C   0  0  0  0  0  0  0  0  0  0  0  0
    3.0630   -9.0170  -26.1060 C   0  0  0  0  0  3  0  0  0  0  0  0
    3.0460   -7.9360  -26.8970 C   0  0  0  0  0  0  0  0  0  0  0  0
    2.4280   -6.8200  -26.4520 F   0  0  0  0  0  0  0  0  0  0  0  0
   -2.3220   -8.4710  -23.8430 N   0  0  0  0  0  0  0  0  0  0  0  0
   -3.3090   -8.4340  -24.0250 H   0  0  0  0  0  0  0  0  0  0  0  0
   -1.5370   -7.3340  -23.9580 C   0  0  0  0  0  0  0  0  0  0  0  0
   -1.4290   -6.5700  -22.8610 N   0  0  0  0  0  0  0  0  0  0  0  0
   -0.8710   -5.3750  -23.0210 C   0  0  0  0  0  3  0  0  0  0  0  0
   -0.5340   -4.8210  -24.1850 N   0  0  0  0  0  0  0  0  0  0  0  0
   -0.6230   -5.5940  -25.2840 C   0  0  0  0  0  0  0  0  0  0  0  0
   -0.3250   -5.0950  -26.5550 C   0  0  0  0  0  0  0  0  0  0  0  0
   -0.2620   -5.9020  -27.6990 C   0  0  0  0  0  3  0  0  0  0  0  0
   -0.5770   -7.2460  -27.5980 C   0  0  0  0  0  3  0  0  0  0  0  0
   -1.0050   -7.7480  -26.3720 C   0  0  0  0  0  3  0  0  0  0  0  0
   -1.0440   -6.9280  -25.2110 C   0  0  0  0  0  0  0  0  0  0  0  0
   -0.2030   -3.6420  -26.7740 C   0  0  0  0  0  0  0  0  0  0  0  0
   -1.1870   -2.8890  -26.1930 N   0  0  0  0  0  0  0  0  0  0  0  0
    0.6400   -3.1660  -27.5200 O   0  0  0  0  0  0  0  0  0  0  0  0
   -1.1840   -1.8900  -26.3470 H   0  0  0  0  0  0  0  0  0  0  0  0
   -1.9100   -3.2920  -25.6110 H   0  0  0  0  0  0  0  0  0  0  0  0
  1  2  1  1  0  0  0
  3 11  1  0  0  0  0
  3  8  1  0  0  0  0
  4  3  2  0  0  0  0
  5  4  1  0  0  0  0
  5  6  2  0  0  0  0
  6  7  1  0  0  0  0
  7  8  2  0  0  0  0
  7  1  1  0  0  0  0
  9 10  2  0  0  0  0
  9 11  1  0  0  0  0
 11 12  1  0  0  0  0
 14 13  1  6  0  0  0
 14 19  1  0  0  0  0
 15 14  1  0  0  0  0
 15 16  1  0  0  0  0
 16 17  2  0  0  0  0
 17 18  1  0  0  0  0
 17  9  1  0  0  0  0
 19 20  1  0  0  0  0
 19 18  2  0  0  0  0
 21  1  1  0  0  0  0
 22 21  1  0  0  0  0
 23 21  1  0  0  0  0
 23 24  1  0  0  0  0
 25 24  2  0  0  0  0
 26 25  1  0  0  0  0
 27 32  1  0  0  0  0
 27 26  2  0  0  0  0
 28 27  1  0  0  0  0
 29 30  1  0  0  0  0
 29 28  2  0  0  0  0
 30 31  2  0  0  0  0
 31 32  1  0  0  0  0
 32 23  2  0  0  0  0
 33 28  1  0  0  0  0
 33 34  1  0  0  0  0
 34 37  1  0  0  0  0
 35 33  2  0  0  0  0
 36 34  1  0  0  0  0
M  END
>  <minimizedAffinity>
-9.50540924

$$$$
