
 OpenBabel10152419443D

 37 40  0  0  1  0  0  0  0  0999 V2000
    2.8010   -9.9710  -26.0030 C   0  0  2  0  0  3  0  0  0  0  0  0
    2.0150   -9.1880  -24.9440 C   0  0  0  0  0  1  0  0  0  0  0  0
    3.0150   -6.9210  -28.3270 C   0  0  0  0  0  0  0  0  0  0  0  0
    3.6800   -7.4740  -29.4270 C   0  0  0  0  0  3  0  0  0  0  0  0
    4.1510   -8.7830  -29.3870 C   0  0  0  0  0  3  0  0  0  0  0  0
    3.8990   -9.5750  -28.2700 C   0  0  0  0  0  3  0  0  0  0  0  0
    3.1800   -9.0660  -27.1760 C   0  0  0  0  0  0  0  0  0  0  0  0
    2.7770   -7.7120  -27.1980 C   0  0  0  0  0  3  0  0  0  0  0  0
    1.2820   -5.0730  -28.3190 C   0  0  0  0  0  0  0  0  0  0  0  0
    1.0030   -4.0360  -28.9270 O   0  0  0  0  0  0  0  0  0  0  0  0
    2.5220   -5.6160  -28.4860 N   0  0  0  0  0  0  0  0  0  0  0  0
    3.1700   -4.9420  -28.8760 H   0  0  0  0  0  0  0  0  0  0  0  0
   -1.7430   -7.4410  -23.9940 C   0  0  0  0  0  1  0  0  0  0  0  0
   -1.4780   -6.5700  -25.2210 C   0  0  2  0  0  3  0  0  0  0  0  0
   -1.1330   -7.4510  -26.4390 C   0  0  0  0  0  2  0  0  0  0  0  0
   -0.3480   -6.7510  -27.5170 C   0  0  0  0  0  3  0  0  0  0  0  0
    0.3260   -5.6060  -27.2900 C   0  0  0  0  0  0  0  0  0  0  0  0
    0.3680   -5.0640  -25.9410 C   0  0  0  0  0  3  0  0  0  0  0  0
   -0.4450   -5.5050  -24.9720 C   0  0  0  0  0  0  0  0  0  0  0  0
   -0.3400   -4.9570  -23.7410 F   0  0  0  0  0  0  0  0  0  0  0  0
    1.9900  -11.0890  -26.4660 N   0  0  0  0  0  0  0  0  0  0  0  0
    2.4000  -11.8090  -27.0340 H   0  0  0  0  0  0  0  0  0  0  0  0
    0.7300  -11.2530  -25.9130 C   0  0  0  0  0  0  0  0  0  0  0  0
   -0.2930  -10.7080  -26.5880 N   0  0  0  0  0  0  0  0  0  0  0  0
   -1.4640  -10.6650  -25.9610 C   0  0  0  0  0  3  0  0  0  0  0  0
   -1.6780  -10.9910  -24.6860 N   0  0  0  0  0  0  0  0  0  0  0  0
   -0.6580  -11.5570  -24.0150 C   0  0  0  0  0  0  0  0  0  0  0  0
   -0.7730  -11.9030  -22.6650 C   0  0  0  0  0  0  0  0  0  0  0  0
    0.2090  -12.6260  -21.9740 C   0  0  0  0  0  3  0  0  0  0  0  0
    1.3870  -12.9590  -22.6210 C   0  0  0  0  0  3  0  0  0  0  0  0
    1.5880  -12.5150  -23.9250 C   0  0  0  0  0  3  0  0  0  0  0  0
    0.5780  -11.8030  -24.6280 C   0  0  0  0  0  0  0  0  0  0  0  0
   -1.8920  -11.3860  -21.8580 C   0  0  0  0  0  0  0  0  0  0  0  0
   -2.0010  -10.0220  -21.8330 N   0  0  0  0  0  0  0  0  0  0  0  0
   -2.5870  -12.1170  -21.1680 O   0  0  0  0  0  0  0  0  0  0  0  0
   -2.7210   -9.6050  -21.2580 H   0  0  0  0  0  0  0  0  0  0  0  0
   -1.3960   -9.4170  -22.3730 H   0  0  0  0  0  0  0  0  0  0  0  0
  1  2  1  1  0  0  0
  3  8  1  0  0  0  0
  4  5  1  0  0  0  0
  4  3  2  0  0  0  0
  5  6  2  0  0  0  0
  6  7  1  0  0  0  0
  7  1  1  0  0  0  0
  8  7  2  0  0  0  0
  9 17  1  0  0  0  0
 10  9  2  0  0  0  0
 11  3  1  0  0  0  0
 11  9  1  0  0  0  0
 12 11  1  0  0  0  0
 14 19  1  0  0  0  0
 14 13  1  1  0  0  0
 15 14  1  0  0  0  0
 16 17  2  0  0  0  0
 16 15  1  0  0  0  0
 17 18  1  0  0  0  0
 18 19  2  0  0  0  0
 19 20  1  0  0  0  0
 21  1  1  0  0  0  0
 21 23  1  0  0  0  0
 22 21  1  0  0  0  0
 23 32  1  0  0  0  0
 24 25  1  0  0  0  0
 24 23  2  0  0  0  0
 25 26  2  0  0  0  0
 26 27  1  0  0  0  0
 27 28  1  0  0  0  0
 28 29  2  0  0  0  0
 28 33  1  0  0  0  0
 30 29  1  0  0  0  0
 31 30  2  0  0  0  0
 32 27  2  0  0  0  0
 32 31  1  0  0  0  0
 33 34  1  0  0  0  0
 33 35  2  0  0  0  0
 34 36  1  0  0  0  0
 37 34  1  0  0  0  0
M  END
>  <minimizedAffinity>
-9.45356846

$$$$
