REMARK  Name = 
REMARK  8 active torsions:
REMARK  status: ('A' for Active; 'I' for Inactive)
REMARK    1  A    between atoms: C_1  and  C_2
REMARK    2  A    between atoms: C_5  and  C_6
REMARK    3  A    between atoms: N_8  and  C_9
REMARK    4  A    between atoms: C_13  and  C_14
REMARK    5  A    between atoms: C_14  and  C_15
REMARK    6  A    between atoms: C_14  and  N_16
REMARK    7  A    between atoms: N_16  and  C_17
REMARK    8  A    between atoms: C_22  and  C_23
REMARK                            x       y       z     vdW  Elec       q    Type
REMARK                         _______ _______ _______ _____ _____    ______ ____
ROOT
ATOM      1  C   UNL     1      -4.002  -2.890   2.800  0.00  0.00    +0.099 C 
ATOM      2  C   UNL     1      -5.278  -3.664   3.153  0.00  0.00    +0.033 C 
ENDROOT
BRANCH   1   7
ATOM      3  C   UNL     1      -0.737  -4.912   2.831  0.00  0.00    +0.034 A 
ATOM      4  C   UNL     1      -0.611  -5.189   4.197  0.00  0.00    +0.023 A 
ATOM      5  C   UNL     1      -1.505  -4.647   5.116  0.00  0.00    +0.002 A 
ATOM      6  C   UNL     1      -2.575  -3.877   4.669  0.00  0.00    +0.005 A 
ATOM      7  C   UNL     1      -2.762  -3.633   3.298  0.00  0.00    -0.026 A 
ATOM      8  C   UNL     1      -1.803  -4.124   2.384  0.00  0.00    +0.028 A 
BRANCH   3  11
ATOM      9  C   UNL     1       0.596  -5.283   0.708  0.00  0.00    +0.248 C 
ATOM     10  O   UNL     1       1.046  -6.206   0.024  0.00  0.00    -0.270 OA
ATOM     11  N   UNL     1       0.173  -5.555   1.977  0.00  0.00    -0.282 N 
ATOM     12  H   UNL     1       0.544  -6.438   2.307  0.00  0.00    +0.155 HD
BRANCH   9  17
ATOM     13  C   UNL     1       1.675  -0.064  -1.541  0.00  0.00    +0.015 C 
ATOM     14  C   UNL     1       0.860  -1.181  -0.892  0.00  0.00    +0.048 C 
ATOM     15  C   UNL     1       1.410  -1.499   0.514  0.00  0.00    +0.038 C 
ATOM     16  C   UNL     1       1.078  -2.878   1.020  0.00  0.00    -0.013 C 
ATOM     17  C   UNL     1       0.687  -3.873   0.199  0.00  0.00    +0.036 C 
ATOM     18  C   UNL     1       0.660  -3.638  -1.236  0.00  0.00    +0.046 C 
ATOM     19  C   UNL     1       0.753  -2.407  -1.757  0.00  0.00    +0.104 C 
ATOM     20  F   UNL     1       0.728  -2.271  -3.101  0.00  0.00    -0.210 F 
ENDBRANCH   9  17
ENDBRANCH   3  11
ENDBRANCH   1   7
BRANCH   1  21
ATOM     21  N   UNL     1      -4.072  -1.563   3.397  0.00  0.00    -0.322 N 
ATOM     22  H   UNL     1      -4.633  -1.407   4.216  0.00  0.00    +0.148 HD
BRANCH  21  23
ATOM     23  C   UNL     1      -3.174  -0.603   2.960  0.00  0.00    +0.130 A 
ATOM     24  N   UNL     1      -2.934  -0.567   1.641  0.00  0.00    -0.220 NA
ATOM     25  C   UNL     1      -1.918   0.190   1.241  0.00  0.00    +0.223 A 
ATOM     26  N   UNL     1      -1.043   0.805   2.037  0.00  0.00    -0.235 NA
ATOM     27  C   UNL     1      -1.294   0.786   3.359  0.00  0.00    +0.088 A 
ATOM     28  C   UNL     1      -0.419   1.373   4.278  0.00  0.00    +0.063 A 
ATOM     29  C   UNL     1      -0.716   1.505   5.641  0.00  0.00    +0.015 A 
ATOM     30  C   UNL     1      -1.895   0.971   6.133  0.00  0.00    +0.002 A 
ATOM     31  C   UNL     1      -2.727   0.265   5.268  0.00  0.00    +0.013 A 
ATOM     32  C   UNL     1      -2.431   0.156   3.882  0.00  0.00    +0.041 A 
BRANCH  28  33
ATOM     33  C   UNL     1       0.944   1.756   3.867  0.00  0.00    +0.244 C 
ATOM     34  N   UNL     1       1.763   0.708   3.545  0.00  0.00    -0.325 N 
ATOM     35  O   UNL     1       1.341   2.910   3.931  0.00  0.00    -0.270 OA
ATOM     36  H   UNL     1       2.724   0.904   3.301  0.00  0.00    +0.145 HD
ATOM     37  H   UNL     1       1.442  -0.251   3.535  0.00  0.00    +0.145 HD
ENDBRANCH  28  33
ENDBRANCH  21  23
ENDBRANCH   1  21
TORSDOF 6
