
 OpenBabel10152420013D

 36 39  0  0  0  0  0  0  0  0999 V2000
   -0.4330   -5.7090  -23.4050 C   0  0  0  0  0  2  0  0  0  0  0  0
   -1.8010  -11.4130  -21.7240 C   0  0  0  0  0  0  0  0  0  0  0  0
   -1.3630  -12.0990  -22.8670 C   0  0  0  0  0  3  0  0  0  0  0  0
   -0.8420  -11.3830  -23.9320 C   0  0  0  0  0  3  0  0  0  0  0  0
   -0.7810   -9.9950  -23.8460 C   0  0  0  0  0  3  0  0  0  0  0  0
   -1.2340   -9.2990  -22.6920 C   0  0  0  0  0  0  0  0  0  0  0  0
   -1.2010   -7.8970  -22.5520 C   0  0  0  0  0  0  0  0  0  0  0  0
   -0.7640   -7.1060  -23.6110 N   0  0  0  0  0  0  0  0  0  0  0  0
   -1.5680   -7.2850  -21.4160 N   0  0  0  0  0  0  0  0  0  0  0  0
   -2.0140   -8.0670  -20.4310 C   0  0  0  0  0  3  0  0  0  0  0  0
   -2.1190   -9.3980  -20.4660 N   0  0  0  0  0  0  0  0  0  0  0  0
   -1.7370  -10.0190  -21.5950 C   0  0  0  0  0  0  0  0  0  0  0  0
   -1.1510   -7.3430  -24.5140 H   0  0  0  0  0  0  0  0  0  0  0  0
   -1.5090  -12.5670  -19.6390 N   0  0  0  0  0  0  0  0  0  0  0  0
   -2.3750  -12.2250  -20.6390 C   0  0  0  0  0  0  0  0  0  0  0  0
   -3.5290  -12.6260  -20.6780 O   0  0  0  0  0  0  0  0  0  0  0  0
   -1.8700  -13.1310  -18.8810 H   0  0  0  0  0  0  0  0  0  0  0  0
   -0.5590  -12.2290  -19.5900 H   0  0  0  0  0  0  0  0  0  0  0  0
   -0.5140   -4.9170  -24.6940 C   0  0  0  0  0  0  0  0  0  0  0  0
   -1.1110   -3.6510  -24.7350 C   0  0  0  0  0  3  0  0  0  0  0  0
   -1.1400   -2.9210  -25.9220 C   0  0  0  0  0  3  0  0  0  0  0  0
   -0.5460   -3.4330  -27.0770 C   0  0  0  0  0  3  0  0  0  0  0  0
    0.0970   -4.6690  -27.0530 C   0  0  0  0  0  0  0  0  0  0  0  0
    0.0870   -5.4130  -25.8640 C   0  0  0  0  0  3  0  0  0  0  0  0
    0.7230   -5.2600  -28.1660 N   0  0  0  0  0  0  0  0  0  0  0  0
    1.5960   -6.3150  -28.2850 C   0  0  0  0  0  0  0  0  0  0  0  0
    2.2240   -6.4820  -29.3300 O   0  0  0  0  0  0  0  0  0  0  0  0
    0.5300   -4.8370  -29.0670 H   0  0  0  0  0  0  0  0  0  0  0  0
    1.7740   -7.3090  -27.2160 C   0  0  0  0  0  0  0  0  0  0  0  0
    3.0490   -7.4920  -26.6670 C   0  0  0  0  0  3  0  0  0  0  0  0
    3.2380   -8.4520  -25.6720 C   0  0  0  0  0  3  0  0  0  0  0  0
    2.1610   -9.2310  -25.2540 C   0  0  0  0  0  0  0  0  0  0  0  0
    2.3480  -10.1500  -24.2980 F   0  0  0  0  0  0  0  0  0  0  0  0
    0.9000   -9.0780  -25.8170 C   0  0  0  0  0  3  0  0  0  0  0  0
    0.7140   -8.1210  -26.8080 C   0  0  0  0  0  0  0  0  0  0  0  0
   -0.5000   -8.0030  -27.3670 F   0  0  0  0  0  0  0  0  0  0  0  0
  2 12  1  0  0  0  0
  2 15  1  0  0  0  0
  3  2  2  0  0  0  0
  4  5  2  0  0  0  0
  4  3  1  0  0  0  0
  5  6  1  0  0  0  0
  6  7  2  0  0  0  0
  6 12  1  0  0  0  0
  7  9  1  0  0  0  0
  8  1  1  0  0  0  0
  8  7  1  0  0  0  0
  9 10  2  0  0  0  0
 11 10  1  0  0  0  0
 12 11  2  0  0  0  0
 13  8  1  0  0  0  0
 14 18  1  0  0  0  0
 14 17  1  0  0  0  0
 15 14  1  0  0  0  0
 16 15  2  0  0  0  0
 19  1  1  0  0  0  0
 20 19  1  0  0  0  0
 21 20  2  0  0  0  0
 22 23  2  0  0  0  0
 22 21  1  0  0  0  0
 23 24  1  0  0  0  0
 24 19  2  0  0  0  0
 25 23  1  0  0  0  0
 26 25  1  0  0  0  0
 26 29  1  0  0  0  0
 27 26  2  0  0  0  0
 28 25  1  0  0  0  0
 29 35  2  0  0  0  0
 29 30  1  0  0  0  0
 30 31  2  0  0  0  0
 31 32  1  0  0  0  0
 32 33  1  0  0  0  0
 34 32  2  0  0  0  0
 35 34  1  0  0  0  0
 36 35  1  0  0  0  0
M  END
>  <minimizedAffinity>
-7.45510769

$$$$
