
 OpenBabel10152420013D

 36 39  0  0  0  0  0  0  0  0999 V2000
   -0.4810   -6.8020  -24.1260 C   0  0  0  0  0  2  0  0  0  0  0  0
   -1.4820  -12.0150  -21.1180 C   0  0  0  0  0  0  0  0  0  0  0  0
   -0.6690  -12.8740  -21.8730 C   0  0  0  0  0  3  0  0  0  0  0  0
    0.0180  -12.3730  -22.9660 C   0  0  0  0  0  3  0  0  0  0  0  0
   -0.1300  -11.0300  -23.2980 C   0  0  0  0  0  3  0  0  0  0  0  0
   -0.9620  -10.1610  -22.5390 C   0  0  0  0  0  0  0  0  0  0  0  0
   -1.1530   -8.7960  -22.8320 C   0  0  0  0  0  0  0  0  0  0  0  0
   -0.5580   -8.2410  -23.9600 N   0  0  0  0  0  0  0  0  0  0  0  0
   -1.8870   -7.9940  -22.0450 N   0  0  0  0  0  0  0  0  0  0  0  0
   -2.4720   -8.5620  -20.9890 C   0  0  0  0  0  3  0  0  0  0  0  0
   -2.3860   -9.8480  -20.6370 N   0  0  0  0  0  0  0  0  0  0  0  0
   -1.6390  -10.6540  -21.4110 C   0  0  0  0  0  0  0  0  0  0  0  0
   -0.6550   -8.7800  -24.8090 H   0  0  0  0  0  0  0  0  0  0  0  0
   -3.5220  -12.9190  -20.2290 N   0  0  0  0  0  0  0  0  0  0  0  0
   -2.2120  -12.6110  -19.9870 C   0  0  0  0  0  0  0  0  0  0  0  0
   -1.6960  -12.7450  -18.8880 O   0  0  0  0  0  0  0  0  0  0  0  0
   -4.0540  -13.3230  -19.4700 H   0  0  0  0  0  0  0  0  0  0  0  0
   -3.9540  -12.8260  -21.1370 H   0  0  0  0  0  0  0  0  0  0  0  0
   -0.2580   -6.4130  -25.5720 C   0  0  0  0  0  0  0  0  0  0  0  0
   -1.2850   -5.8550  -26.3450 C   0  0  0  0  0  3  0  0  0  0  0  0
   -1.0480   -5.4680  -27.6620 C   0  0  0  0  0  3  0  0  0  0  0  0
    0.2260   -5.6050  -28.2170 C   0  0  0  0  0  3  0  0  0  0  0  0
    1.2780   -6.1120  -27.4570 C   0  0  0  0  0  0  0  0  0  0  0  0
    1.0200   -6.5350  -26.1450 C   0  0  0  0  0  3  0  0  0  0  0  0
    2.5920   -6.2830  -27.9330 N   0  0  0  0  0  0  0  0  0  0  0  0
    3.5500   -7.2350  -27.6810 C   0  0  0  0  0  0  0  0  0  0  0  0
    4.7210   -7.0320  -28.0010 O   0  0  0  0  0  0  0  0  0  0  0  0
    2.9340   -5.5720  -28.5690 H   0  0  0  0  0  0  0  0  0  0  0  0
    3.2220   -8.5380  -27.0860 C   0  0  0  0  0  0  0  0  0  0  0  0
    2.7560   -8.5820  -25.7650 C   0  0  0  0  0  3  0  0  0  0  0  0
    2.4690   -9.8150  -25.1780 C   0  0  0  0  0  3  0  0  0  0  0  0
    2.6690  -10.9870  -25.9050 C   0  0  0  0  0  0  0  0  0  0  0  0
    2.3900  -12.1670  -25.3360 F   0  0  0  0  0  0  0  0  0  0  0  0
    3.1620  -10.9550  -27.2040 C   0  0  0  0  0  3  0  0  0  0  0  0
    3.4480   -9.7250  -27.7870 C   0  0  0  0  0  0  0  0  0  0  0  0
    3.9530   -9.7060  -29.0290 F   0  0  0  0  0  0  0  0  0  0  0  0
  1  8  1  0  0  0  0
  2 15  1  0  0  0  0
  3  2  2  0  0  0  0
  4  3  1  0  0  0  0
  5  4  2  0  0  0  0
  5  6  1  0  0  0  0
  6 12  1  0  0  0  0
  7  6  2  0  0  0  0
  7  9  1  0  0  0  0
  8  7  1  0  0  0  0
  9 10  2  0  0  0  0
 10 11  1  0  0  0  0
 12  2  1  0  0  0  0
 12 11  2  0  0  0  0
 13  8  1  0  0  0  0
 14 15  1  0  0  0  0
 14 17  1  0  0  0  0
 15 16  2  0  0  0  0
 18 14  1  0  0  0  0
 19  1  1  0  0  0  0
 20 19  2  0  0  0  0
 21 20  1  0  0  0  0
 22 21  2  0  0  0  0
 22 23  1  0  0  0  0
 23 24  2  0  0  0  0
 24 19  1  0  0  0  0
 25 26  1  0  0  0  0
 25 23  1  0  0  0  0
 26 29  1  0  0  0  0
 27 26  2  0  0  0  0
 28 25  1  0  0  0  0
 29 30  1  0  0  0  0
 30 31  2  0  0  0  0
 32 33  1  0  0  0  0
 32 31  1  0  0  0  0
 34 32  2  0  0  0  0
 35 34  1  0  0  0  0
 35 29  2  0  0  0  0
 36 35  1  0  0  0  0
M  END
>  <minimizedAffinity>
-10.0417509

$$$$
