
 OpenBabel10152420013D

 36 39  0  0  0  0  0  0  0  0999 V2000
   -0.4350   -5.9530  -23.1590 C   0  0  0  0  0  2  0  0  0  0  0  0
    2.3310   -6.4690  -28.5730 C   0  0  0  0  0  0  0  0  0  0  0  0
    1.7460   -5.3780  -29.2340 C   0  0  0  0  0  3  0  0  0  0  0  0
    0.8030   -4.6090  -28.5720 C   0  0  0  0  0  3  0  0  0  0  0  0
    0.4480   -4.9500  -27.2700 C   0  0  0  0  0  3  0  0  0  0  0  0
    1.0340   -6.0610  -26.6040 C   0  0  0  0  0  0  0  0  0  0  0  0
    0.7090   -6.4550  -25.2910 C   0  0  0  0  0  0  0  0  0  0  0  0
   -0.2860   -5.7790  -24.5920 N   0  0  0  0  0  0  0  0  0  0  0  0
    1.3410   -7.4650  -24.6720 N   0  0  0  0  0  0  0  0  0  0  0  0
    2.2670   -8.1150  -25.3790 C   0  0  0  0  0  3  0  0  0  0  0  0
    2.6300   -7.8500  -26.6370 N   0  0  0  0  0  0  0  0  0  0  0  0
    2.0130   -6.8290  -27.2570 C   0  0  0  0  0  0  0  0  0  0  0  0
   -1.1370   -5.6090  -25.1090 H   0  0  0  0  0  0  0  0  0  0  0  0
    4.5740   -7.2880  -28.8360 N   0  0  0  0  0  0  0  0  0  0  0  0
    3.3030   -7.2680  -29.3380 C   0  0  0  0  0  0  0  0  0  0  0  0
    3.0020   -7.8080  -30.3920 O   0  0  0  0  0  0  0  0  0  0  0  0
    5.2670   -7.8220  -29.3420 H   0  0  0  0  0  0  0  0  0  0  0  0
    4.8290   -6.8570  -27.9590 H   0  0  0  0  0  0  0  0  0  0  0  0
   -1.4780   -7.0000  -22.8260 C   0  0  0  0  0  0  0  0  0  0  0  0
   -2.8260   -6.8180  -23.1570 C   0  0  0  0  0  3  0  0  0  0  0  0
   -3.7640   -7.8100  -22.8770 C   0  0  0  0  0  3  0  0  0  0  0  0
   -3.3630   -9.0110  -22.2890 C   0  0  0  0  0  3  0  0  0  0  0  0
   -2.0200   -9.2390  -21.9930 C   0  0  0  0  0  0  0  0  0  0  0  0
   -1.0900   -8.2190  -22.2420 C   0  0  0  0  0  3  0  0  0  0  0  0
   -1.5260  -10.4180  -21.4030 N   0  0  0  0  0  0  0  0  0  0  0  0
   -0.9860  -11.5640  -21.9360 C   0  0  0  0  0  0  0  0  0  0  0  0
   -0.8740  -12.5740  -21.2430 O   0  0  0  0  0  0  0  0  0  0  0  0
   -1.5850  -10.4720  -20.3920 H   0  0  0  0  0  0  0  0  0  0  0  0
   -0.4730  -11.6200  -23.3120 C   0  0  0  0  0  0  0  0  0  0  0  0
   -1.2800  -11.1520  -24.3570 C   0  0  0  0  0  3  0  0  0  0  0  0
   -0.8160  -11.2270  -25.6710 C   0  0  0  0  0  3  0  0  0  0  0  0
    0.4330  -11.7860  -25.9290 C   0  0  0  0  0  0  0  0  0  0  0  0
    0.8740  -11.8540  -27.1920 F   0  0  0  0  0  0  0  0  0  0  0  0
    1.2270  -12.2830  -24.9020 C   0  0  0  0  0  3  0  0  0  0  0  0
    0.7630  -12.2080  -23.5930 C   0  0  0  0  0  0  0  0  0  0  0  0
    1.5220  -12.7180  -22.6130 F   0  0  0  0  0  0  0  0  0  0  0  0
  1 19  1  0  0  0  0
  2 12  1  0  0  0  0
  3  2  2  0  0  0  0
  3  4  1  0  0  0  0
  4  5  2  0  0  0  0
  5  6  1  0  0  0  0
  6  7  1  0  0  0  0
  7  9  2  0  0  0  0
  7  8  1  0  0  0  0
  8  1  1  0  0  0  0
 10  9  1  0  0  0  0
 11 10  2  0  0  0  0
 12 11  1  0  0  0  0
 12  6  2  0  0  0  0
 13  8  1  0  0  0  0
 14 18  1  0  0  0  0
 15 14  1  0  0  0  0
 15  2  1  0  0  0  0
 16 15  2  0  0  0  0
 17 14  1  0  0  0  0
 19 24  1  0  0  0  0
 20 21  1  0  0  0  0
 20 19  2  0  0  0  0
 21 22  2  0  0  0  0
 22 23  1  0  0  0  0
 23 25  1  0  0  0  0
 24 23  2  0  0  0  0
 25 28  1  0  0  0  0
 26 25  1  0  0  0  0
 26 27  2  0  0  0  0
 29 26  1  0  0  0  0
 30 29  2  0  0  0  0
 31 30  1  0  0  0  0
 32 31  2  0  0  0  0
 32 34  1  0  0  0  0
 33 32  1  0  0  0  0
 34 35  2  0  0  0  0
 35 29  1  0  0  0  0
 35 36  1  0  0  0  0
M  END
>  <minimizedAffinity>
-7.89417076

$$$$
