
 OpenBabel10152420013D

 36 39  0  0  0  0  0  0  0  0999 V2000
   -1.6680   -6.7170  -26.5040 C   0  0  0  0  0  2  0  0  0  0  0  0
   -1.3650  -10.7770  -21.9590 C   0  0  0  0  0  0  0  0  0  0  0  0
   -1.4500   -9.9020  -20.8650 C   0  0  0  0  0  3  0  0  0  0  0  0
   -1.5350   -8.5380  -21.0900 C   0  0  0  0  0  3  0  0  0  0  0  0
   -1.5160   -8.0690  -22.4010 C   0  0  0  0  0  3  0  0  0  0  0  0
   -1.4210   -8.9550  -23.5090 C   0  0  0  0  0  0  0  0  0  0  0  0
   -1.3920   -8.5350  -24.8540 C   0  0  0  0  0  0  0  0  0  0  0  0
   -1.3930   -7.1770  -25.1560 N   0  0  0  0  0  0  0  0  0  0  0  0
   -1.3780   -9.4090  -25.8730 N   0  0  0  0  0  0  0  0  0  0  0  0
   -1.3430  -10.7040  -25.5520 C   0  0  0  0  0  3  0  0  0  0  0  0
   -1.3330  -11.2100  -24.3160 N   0  0  0  0  0  0  0  0  0  0  0  0
   -1.3640  -10.3420  -23.2910 C   0  0  0  0  0  0  0  0  0  0  0  0
   -0.7480   -6.6150  -24.6180 H   0  0  0  0  0  0  0  0  0  0  0  0
   -2.4000  -12.8290  -21.2640 N   0  0  0  0  0  0  0  0  0  0  0  0
   -1.2460  -12.2120  -21.6560 C   0  0  0  0  0  0  0  0  0  0  0  0
   -0.1680  -12.7870  -21.6810 O   0  0  0  0  0  0  0  0  0  0  0  0
   -2.3510  -13.8150  -21.0420 H   0  0  0  0  0  0  0  0  0  0  0  0
   -3.2980  -12.3680  -21.2550 H   0  0  0  0  0  0  0  0  0  0  0  0
   -0.5100   -5.9250  -27.0740 C   0  0  0  0  0  0  0  0  0  0  0  0
   -0.4890   -4.5250  -27.0240 C   0  0  0  0  0  3  0  0  0  0  0  0
    0.6030   -3.8160  -27.5190 C   0  0  0  0  0  3  0  0  0  0  0  0
    1.7040   -4.4960  -28.0440 C   0  0  0  0  0  3  0  0  0  0  0  0
    1.7310   -5.8900  -28.0630 C   0  0  0  0  0  0  0  0  0  0  0  0
    0.6100   -6.5930  -27.5980 C   0  0  0  0  0  3  0  0  0  0  0  0
    2.7960   -6.6570  -28.5700 N   0  0  0  0  0  0  0  0  0  0  0  0
    3.5100   -7.7090  -28.0480 C   0  0  0  0  0  0  0  0  0  0  0  0
    4.5770   -8.0460  -28.5600 O   0  0  0  0  0  0  0  0  0  0  0  0
    3.1420   -6.3940  -29.4860 H   0  0  0  0  0  0  0  0  0  0  0  0
    3.0160   -8.5040  -26.9150 C   0  0  0  0  0  0  0  0  0  0  0  0
    2.6540   -7.8460  -25.7320 C   0  0  0  0  0  3  0  0  0  0  0  0
    2.2110   -8.5920  -24.6390 C   0  0  0  0  0  3  0  0  0  0  0  0
    2.1560   -9.9810  -24.7300 C   0  0  0  0  0  0  0  0  0  0  0  0
    1.7280  -10.6910  -23.6770 F   0  0  0  0  0  0  0  0  0  0  0  0
    2.5450  -10.6440  -25.8870 C   0  0  0  0  0  3  0  0  0  0  0  0
    2.9860   -9.8990  -26.9760 C   0  0  0  0  0  0  0  0  0  0  0  0
    3.3890  -10.5490  -28.0770 F   0  0  0  0  0  0  0  0  0  0  0  0
  1  8  1  0  0  0  0
  2 15  1  0  0  0  0
  2  3  1  0  0  0  0
  4  3  2  0  0  0  0
  5  4  1  0  0  0  0
  6 12  1  0  0  0  0
  6  5  2  0  0  0  0
  7  6  1  0  0  0  0
  8  7  1  0  0  0  0
  8 13  1  0  0  0  0
  9 10  1  0  0  0  0
  9  7  2  0  0  0  0
 10 11  2  0  0  0  0
 11 12  1  0  0  0  0
 12  2  2  0  0  0  0
 14 18  1  0  0  0  0
 14 17  1  0  0  0  0
 15 14  1  0  0  0  0
 16 15  2  0  0  0  0
 19 20  1  0  0  0  0
 19  1  1  0  0  0  0
 21 20  2  0  0  0  0
 22 21  1  0  0  0  0
 23 22  2  0  0  0  0
 23 24  1  0  0  0  0
 24 19  2  0  0  0  0
 25 23  1  0  0  0  0
 25 26  1  0  0  0  0
 26 29  1  0  0  0  0
 27 26  2  0  0  0  0
 28 25  1  0  0  0  0
 29 30  1  0  0  0  0
 30 31  2  0  0  0  0
 32 31  1  0  0  0  0
 32 33  1  0  0  0  0
 34 32  2  0  0  0  0
 35 29  2  0  0  0  0
 35 34  1  0  0  0  0
 36 35  1  0  0  0  0
M  END
>  <minimizedAffinity>
-10.1842976

$$$$
