
 OpenBabel10152420013D

 36 39  0  0  0  0  0  0  0  0999 V2000
   -1.4020   -6.2670  -26.1250 C   0  0  0  0  0  2  0  0  0  0  0  0
   -0.8550  -11.7380  -23.4810 C   0  0  0  0  0  0  0  0  0  0  0  0
   -0.5180  -12.5040  -24.6070 C   0  0  0  0  0  3  0  0  0  0  0  0
   -0.4450  -11.8920  -25.8470 C   0  0  0  0  0  3  0  0  0  0  0  0
   -0.7260  -10.5330  -25.9470 C   0  0  0  0  0  3  0  0  0  0  0  0
   -1.0760   -9.7590  -24.8060 C   0  0  0  0  0  0  0  0  0  0  0  0
   -1.3750   -8.3820  -24.8480 C   0  0  0  0  0  0  0  0  0  0  0  0
   -1.3990   -7.7160  -26.0700 N   0  0  0  0  0  0  0  0  0  0  0  0
   -1.6270   -7.6730  -23.7370 N   0  0  0  0  0  0  0  0  0  0  0  0
   -1.6290   -8.3450  -22.5850 C   0  0  0  0  0  3  0  0  0  0  0  0
   -1.3940   -9.6510  -22.4330 N   0  0  0  0  0  0  0  0  0  0  0  0
   -1.1240  -10.3650  -23.5390 C   0  0  0  0  0  0  0  0  0  0  0  0
   -1.9010   -8.1890  -26.8090 H   0  0  0  0  0  0  0  0  0  0  0  0
   -2.1770  -12.4300  -21.5990 N   0  0  0  0  0  0  0  0  0  0  0  0
   -0.9470  -12.4500  -22.1950 C   0  0  0  0  0  0  0  0  0  0  0  0
    0.0330  -12.9530  -21.6670 O   0  0  0  0  0  0  0  0  0  0  0  0
   -2.2730  -12.9040  -20.7110 H   0  0  0  0  0  0  0  0  0  0  0  0
   -2.9960  -12.0300  -22.0330 H   0  0  0  0  0  0  0  0  0  0  0  0
   -0.2870   -5.7350  -27.0010 C   0  0  0  0  0  0  0  0  0  0  0  0
   -0.0580   -4.3600  -27.1350 C   0  0  0  0  0  3  0  0  0  0  0  0
    0.9980   -3.8920  -27.9160 C   0  0  0  0  0  3  0  0  0  0  0  0
    1.8580   -4.7910  -28.5480 C   0  0  0  0  0  3  0  0  0  0  0  0
    1.6830   -6.1650  -28.3930 C   0  0  0  0  0  0  0  0  0  0  0  0
    0.5940   -6.6270  -27.6380 C   0  0  0  0  0  3  0  0  0  0  0  0
    2.5000   -7.1430  -28.9900 N   0  0  0  0  0  0  0  0  0  0  0  0
    3.2110   -8.1990  -28.4710 C   0  0  0  0  0  0  0  0  0  0  0  0
    4.0730   -8.7560  -29.1490 O   0  0  0  0  0  0  0  0  0  0  0  0
    2.6270   -7.0690  -29.9930 H   0  0  0  0  0  0  0  0  0  0  0  0
    2.9410   -8.7410  -27.1320 C   0  0  0  0  0  0  0  0  0  0  0  0
    2.7850  -10.1240  -26.9790 C   0  0  0  0  0  3  0  0  0  0  0  0
    2.5000  -10.6500  -25.7180 C   0  0  0  0  0  3  0  0  0  0  0  0
    2.3520   -9.7900  -24.6320 C   0  0  0  0  0  0  0  0  0  0  0  0
    2.0790  -10.3010  -23.4240 F   0  0  0  0  0  0  0  0  0  0  0  0
    2.4720   -8.4140  -24.7800 C   0  0  0  0  0  3  0  0  0  0  0  0
    2.7560   -7.8920  -26.0380 C   0  0  0  0  0  0  0  0  0  0  0  0
    2.8390   -6.5610  -26.1760 F   0  0  0  0  0  0  0  0  0  0  0  0
  1  8  1  0  0  0  0
  2 15  1  0  0  0  0
  3  2  2  0  0  0  0
  4  3  1  0  0  0  0
  5  4  2  0  0  0  0
  5  6  1  0  0  0  0
  6 12  1  0  0  0  0
  7  6  2  0  0  0  0
  7  9  1  0  0  0  0
  8  7  1  0  0  0  0
  9 10  2  0  0  0  0
 10 11  1  0  0  0  0
 12  2  1  0  0  0  0
 12 11  2  0  0  0  0
 13  8  1  0  0  0  0
 14 17  1  0  0  0  0
 15 16  2  0  0  0  0
 15 14  1  0  0  0  0
 18 14  1  0  0  0  0
 19  1  1  0  0  0  0
 20 19  1  0  0  0  0
 21 20  2  0  0  0  0
 22 23  2  0  0  0  0
 22 21  1  0  0  0  0
 23 24  1  0  0  0  0
 24 19  2  0  0  0  0
 25 26  1  0  0  0  0
 25 23  1  0  0  0  0
 26 29  1  0  0  0  0
 27 26  2  0  0  0  0
 28 25  1  0  0  0  0
 29 30  2  0  0  0  0
 29 35  1  0  0  0  0
 30 31  1  0  0  0  0
 31 32  2  0  0  0  0
 32 33  1  0  0  0  0
 34 32  1  0  0  0  0
 35 34  2  0  0  0  0
 36 35  1  0  0  0  0
M  END
>  <minimizedAffinity>
-7.40939283

$$$$
