
 OpenBabel10152419453D

 40 43  0  0  0  0  0  0  0  0999 V2000
   -1.5920  -10.5830  -21.6630 C   0  0  0  0  0  0  0  0  0  0  0  0
   -1.9400  -11.8990  -21.3530 C   0  0  0  0  0  3  0  0  0  0  0  0
   -1.2110  -12.9550  -21.8880 C   0  0  0  0  0  3  0  0  0  0  0  0
   -0.1100  -12.6940  -22.7000 C   0  0  0  0  0  3  0  0  0  0  0  0
    0.3280  -11.3830  -22.9490 C   0  0  0  0  0  0  0  0  0  0  0  0
   -0.4360  -10.3300  -22.4190 C   0  0  0  0  0  3  0  0  0  0  0  0
   -2.4530   -8.2210  -21.4220 C   0  0  0  0  0  0  0  0  0  0  0  0
   -3.0600   -7.4580  -20.6720 O   0  0  0  0  0  0  0  0  0  0  0  0
   -2.4360   -9.5730  -21.1710 N   0  0  0  0  0  0  0  0  0  0  0  0
   -3.1650   -9.8560  -20.5250 H   0  0  0  0  0  0  0  0  0  0  0  0
   -0.3450   -6.2800  -26.2770 N   0  0  0  0  0  0  0  0  0  0  0  0
   -0.8320   -6.9880  -27.4540 C   0  0  0  0  0  1  0  0  0  0  0  0
   -0.7950   -6.7310  -25.0510 C   0  0  0  0  0  0  0  0  0  0  0  0
   -0.4160   -6.1500  -23.8400 C   0  0  0  0  0  3  0  0  0  0  0  0
   -0.9320   -6.6240  -22.6300 C   0  0  0  0  0  3  0  0  0  0  0  0
   -1.8430   -7.6710  -22.6450 C   0  0  0  0  0  0  0  0  0  0  0  0
   -2.1430   -8.2380  -23.8660 C   0  0  0  0  0  3  0  0  0  0  0  0
   -1.6570   -7.7790  -25.0460 N   0  0  0  0  0  0  0  0  0  0  0  0
    0.5330   -5.1270  -26.4800 C   0  0  0  0  0  2  0  0  0  0  0  0
    0.8060   -4.8270  -27.9630 C   0  0  0  0  0  2  0  0  0  0  0  0
    0.0110   -2.6750  -27.3230 C   0  0  0  0  0  1  0  0  0  0  0  0
    0.7070   -3.4410  -28.2960 O   0  0  0  0  0  0  0  0  0  0  0  0
    1.5450  -11.1020  -23.8200 C   0  0  0  0  0  2  0  0  0  0  0  0
    1.2530  -10.2230  -24.9390 N   0  0  0  0  0  0  0  0  0  0  0  0
    0.3010   -9.9370  -25.0950 H   0  0  0  0  0  0  0  0  0  0  0  0
    2.2990   -9.5740  -25.5840 C   0  0  0  0  0  0  0  0  0  0  0  0
    2.2950   -8.2300  -25.5460 N   0  0  0  0  0  0  0  0  0  0  0  0
    3.0120   -7.6020  -26.4750 C   0  0  0  0  0  3  0  0  0  0  0  0
    3.6360   -8.1920  -27.4960 N   0  0  0  0  0  0  0  0  0  0  0  0
    3.6960   -9.5380  -27.4910 C   0  0  0  0  0  0  0  0  0  0  0  0
    4.2840  -10.2530  -28.5390 C   0  0  0  0  0  0  0  0  0  0  0  0
    4.5000  -11.6380  -28.4970 C   0  0  0  0  0  3  0  0  0  0  0  0
    4.0460  -12.3630  -27.4090 C   0  0  0  0  0  3  0  0  0  0  0  0
    3.3200  -11.7050  -26.4220 C   0  0  0  0  0  3  0  0  0  0  0  0
    3.1230  -10.2970  -26.4650 C   0  0  0  0  0  0  0  0  0  0  0  0
    4.5210   -9.5930  -29.8350 C   0  0  0  0  0  0  0  0  0  0  0  0
    4.7220   -8.2390  -29.7550 N   0  0  0  0  0  0  0  0  0  0  0  0
    4.4200  -10.1850  -30.8960 O   0  0  0  0  0  0  0  0  0  0  0  0
    4.8430   -7.7170  -30.6110 H   0  0  0  0  0  0  0  0  0  0  0  0
    4.7620   -7.7470  -28.8730 H   0  0  0  0  0  0  0  0  0  0  0  0
  1  2  1  0  0  0  0
  1  9  1  0  0  0  0
  3  2  2  0  0  0  0
  4  3  1  0  0  0  0
  5  4  2  0  0  0  0
  5  6  1  0  0  0  0
  6  1  2  0  0  0  0
  7  9  1  0  0  0  0
  7  8  2  0  0  0  0
  9 10  1  0  0  0  0
 11 13  1  0  0  0  0
 12 11  1  0  0  0  0
 13 18  2  0  0  0  0
 13 14  1  0  0  0  0
 14 15  2  0  0  0  0
 16 15  1  0  0  0  0
 16  7  1  0  0  0  0
 17 16  2  0  0  0  0
 18 17  1  0  0  0  0
 19 11  1  0  0  0  0
 20 19  1  0  0  0  0
 22 20  1  0  0  0  0
 22 21  1  0  0  0  0
 23  5  1  0  0  0  0
 24 23  1  0  0  0  0
 25 24  1  0  0  0  0
 26 27  1  0  0  0  0
 26 24  1  0  0  0  0
 28 27  2  0  0  0  0
 29 30  2  0  0  0  0
 29 28  1  0  0  0  0
 30 35  1  0  0  0  0
 31 32  2  0  0  0  0
 31 30  1  0  0  0  0
 32 33  1  0  0  0  0
 33 34  2  0  0  0  0
 35 34  1  0  0  0  0
 35 26  2  0  0  0  0
 36 37  1  0  0  0  0
 36 31  1  0  0  0  0
 37 40  1  0  0  0  0
 38 36  2  0  0  0  0
 39 37  1  0  0  0  0
M  END
>  <minimizedAffinity>
-7.39761496

$$$$
