
 OpenBabel10152419453D

 40 43  0  0  0  0  0  0  0  0999 V2000
   -1.8640   -9.2080  -22.1950 C   0  0  0  0  0  0  0  0  0  0  0  0
   -1.8890   -8.0750  -21.3790 C   0  0  0  0  0  3  0  0  0  0  0  0
   -1.6760   -6.8170  -21.9300 C   0  0  0  0  0  3  0  0  0  0  0  0
   -1.4770   -6.6880  -23.3030 C   0  0  0  0  0  3  0  0  0  0  0  0
   -1.5480   -7.7940  -24.1640 C   0  0  0  0  0  0  0  0  0  0  0  0
   -1.7400   -9.0590  -23.5850 C   0  0  0  0  0  3  0  0  0  0  0  0
   -1.5740  -11.7050  -21.9470 C   0  0  0  0  0  0  0  0  0  0  0  0
   -2.0340  -12.7070  -21.4030 O   0  0  0  0  0  0  0  0  0  0  0  0
   -1.9830  -10.4520  -21.5530 N   0  0  0  0  0  0  0  0  0  0  0  0
   -2.4380  -10.4620  -20.6460 H   0  0  0  0  0  0  0  0  0  0  0  0
    2.2960  -12.3860  -25.9900 N   0  0  0  0  0  0  0  0  0  0  0  0
    1.7670  -12.9590  -27.2200 C   0  0  0  0  0  1  0  0  0  0  0  0
    1.4060  -12.2270  -24.9460 C   0  0  0  0  0  0  0  0  0  0  0  0
    1.7700  -11.6900  -23.7090 C   0  0  0  0  0  3  0  0  0  0  0  0
    0.8180  -11.5170  -22.6990 C   0  0  0  0  0  3  0  0  0  0  0  0
   -0.5020  -11.8710  -22.9440 C   0  0  0  0  0  0  0  0  0  0  0  0
   -0.7940  -12.4420  -24.1650 C   0  0  0  0  0  3  0  0  0  0  0  0
    0.1190  -12.6030  -25.1550 N   0  0  0  0  0  0  0  0  0  0  0  0
    3.7020  -11.9790  -25.9680 C   0  0  0  0  0  2  0  0  0  0  0  0
    4.5110  -12.5300  -27.1540 C   0  0  0  0  0  2  0  0  0  0  0  0
    4.7200  -12.4590  -29.5250 C   0  0  0  0  0  1  0  0  0  0  0  0
    4.3980  -11.7430  -28.3410 O   0  0  0  0  0  0  0  0  0  0  0  0
   -1.3510   -7.6460  -25.6670 C   0  0  0  0  0  2  0  0  0  0  0  0
   -1.1790   -6.2660  -26.0860 N   0  0  0  0  0  0  0  0  0  0  0  0
   -1.8160   -5.5700  -25.7350 H   0  0  0  0  0  0  0  0  0  0  0  0
    0.0010   -5.8880  -26.7150 C   0  0  0  0  0  0  0  0  0  0  0  0
   -0.0960   -4.9550  -27.6790 N   0  0  0  0  0  0  0  0  0  0  0  0
    0.9060   -4.8900  -28.5530 C   0  0  0  0  0  3  0  0  0  0  0  0
    1.9330   -5.7390  -28.6130 N   0  0  0  0  0  0  0  0  0  0  0  0
    2.0620   -6.6260  -27.6060 C   0  0  0  0  0  0  0  0  0  0  0  0
    3.0750   -7.5900  -27.6000 C   0  0  0  0  0  0  0  0  0  0  0  0
    3.3340   -8.4240  -26.5040 C   0  0  0  0  0  3  0  0  0  0  0  0
    2.5100   -8.3610  -25.3940 C   0  0  0  0  0  3  0  0  0  0  0  0
    1.4000   -7.5230  -25.4300 C   0  0  0  0  0  3  0  0  0  0  0  0
    1.1580   -6.6670  -26.5400 C   0  0  0  0  0  0  0  0  0  0  0  0
    3.7940   -7.9070  -28.8470 C   0  0  0  0  0  0  0  0  0  0  0  0
    4.3750   -6.8250  -29.4580 N   0  0  0  0  0  0  0  0  0  0  0  0
    3.7640   -9.0150  -29.3540 O   0  0  0  0  0  0  0  0  0  0  0  0
    4.8420   -6.9640  -30.3430 H   0  0  0  0  0  0  0  0  0  0  0  0
    4.3590   -5.8990  -29.0540 H   0  0  0  0  0  0  0  0  0  0  0  0
  1  9  1  0  0  0  0
  1  2  1  0  0  0  0
  3  2  2  0  0  0  0
  4  3  1  0  0  0  0
  5  6  1  0  0  0  0
  5  4  2  0  0  0  0
  6  1  2  0  0  0  0
  7  9  1  0  0  0  0
  7  8  2  0  0  0  0
  9 10  1  0  0  0  0
 11 19  1  0  0  0  0
 11 13  1  0  0  0  0
 12 11  1  0  0  0  0
 13 14  1  0  0  0  0
 14 15  2  0  0  0  0
 16 15  1  0  0  0  0
 16  7  1  0  0  0  0
 17 16  2  0  0  0  0
 18 13  2  0  0  0  0
 18 17  1  0  0  0  0
 20 19  1  0  0  0  0
 21 22  1  0  0  0  0
 22 20  1  0  0  0  0
 23  5  1  0  0  0  0
 24 25  1  0  0  0  0
 24 23  1  0  0  0  0
 26 35  1  0  0  0  0
 26 24  1  0  0  0  0
 27 26  2  0  0  0  0
 28 27  1  0  0  0  0
 29 28  2  0  0  0  0
 29 30  1  0  0  0  0
 30 31  2  0  0  0  0
 30 35  1  0  0  0  0
 31 32  1  0  0  0  0
 32 33  2  0  0  0  0
 34 33  1  0  0  0  0
 35 34  2  0  0  0  0
 36 31  1  0  0  0  0
 37 40  1  0  0  0  0
 37 36  1  0  0  0  0
 38 36  2  0  0  0  0
 39 37  1  0  0  0  0
M  END
>  <minimizedAffinity>
-8.37601662

$$$$

 OpenBabel10152419453D

 40 43  0  0  0  0  0  0  0  0999 V2000
   -2.4200   -8.8450  -21.7470 C   0  0  0  0  0  0  0  0  0  0  0  0
   -3.5880   -8.6760  -22.4910 C   0  0  0  0  0  3  0  0  0  0  0  0
   -3.7410   -7.5560  -23.3010 C   0  0  0  0  0  3  0  0  0  0  0  0
   -2.7090   -6.6260  -23.3970 C   0  0  0  0  0  3  0  0  0  0  0  0
   -1.4810   -6.8170  -22.7420 C   0  0  0  0  0  0  0  0  0  0  0  0
   -1.3560   -7.9430  -21.9100 C   0  0  0  0  0  3  0  0  0  0  0  0
   -1.9670  -11.2400  -21.0860 C   0  0  0  0  0  0  0  0  0  0  0  0
   -2.2900  -12.1300  -20.3010 O   0  0  0  0  0  0  0  0  0  0  0  0
   -2.3800   -9.9450  -20.8740 N   0  0  0  0  0  0  0  0  0  0  0  0
   -2.6960   -9.7910  -19.9230 H   0  0  0  0  0  0  0  0  0  0  0  0
    1.4110  -12.2740  -25.4800 N   0  0  0  0  0  0  0  0  0  0  0  0
    0.9320  -11.7110  -26.7350 C   0  0  0  0  0  1  0  0  0  0  0  0
    0.6100  -12.0870  -24.3700 C   0  0  0  0  0  0  0  0  0  0  0  0
    0.9410  -12.5680  -23.1010 C   0  0  0  0  0  3  0  0  0  0  0  0
    0.1100  -12.3180  -22.0050 C   0  0  0  0  0  3  0  0  0  0  0  0
   -1.0450  -11.5690  -22.1860 C   0  0  0  0  0  0  0  0  0  0  0  0
   -1.3470  -11.1620  -23.4690 C   0  0  0  0  0  3  0  0  0  0  0  0
   -0.5420  -11.3900  -24.5370 N   0  0  0  0  0  0  0  0  0  0  0  0
    2.7130  -12.9420  -25.4760 C   0  0  0  0  0  2  0  0  0  0  0  0
    3.8880  -11.9820  -25.7250 C   0  0  0  0  0  2  0  0  0  0  0  0
    4.2470  -10.6760  -27.6840 C   0  0  0  0  0  1  0  0  0  0  0  0
    4.3330  -11.9600  -27.0830 O   0  0  0  0  0  0  0  0  0  0  0  0
   -0.3470   -5.8090  -22.8650 C   0  0  0  0  0  2  0  0  0  0  0  0
   -0.0580   -5.4420  -24.2410 N   0  0  0  0  0  0  0  0  0  0  0  0
    0.0670   -4.4690  -24.4670 H   0  0  0  0  0  0  0  0  0  0  0  0
    0.3210   -6.4290  -25.1420 C   0  0  0  0  0  0  0  0  0  0  0  0
    0.6330   -7.6320  -24.6290 N   0  0  0  0  0  0  0  0  0  0  0  0
    1.3790   -8.4320  -25.3880 C   0  0  0  0  0  3  0  0  0  0  0  0
    1.9260   -8.0950  -26.5570 N   0  0  0  0  0  0  0  0  0  0  0  0
    1.5540   -6.9180  -27.0990 C   0  0  0  0  0  0  0  0  0  0  0  0
    2.1070   -6.4510  -28.2950 C   0  0  0  0  0  0  0  0  0  0  0  0
    1.6370   -5.3130  -28.9650 C   0  0  0  0  0  3  0  0  0  0  0  0
    0.6310   -4.5550  -28.3900 C   0  0  0  0  0  3  0  0  0  0  0  0
    0.1670   -4.9050  -27.1260 C   0  0  0  0  0  3  0  0  0  0  0  0
    0.6370   -6.0730  -26.4650 C   0  0  0  0  0  0  0  0  0  0  0  0
    3.3590   -7.0390  -28.8040 C   0  0  0  0  0  0  0  0  0  0  0  0
    4.4490   -6.8390  -27.9960 N   0  0  0  0  0  0  0  0  0  0  0  0
    3.4390   -7.5460  -29.9090 O   0  0  0  0  0  0  0  0  0  0  0  0
    5.3500   -7.1740  -28.3090 H   0  0  0  0  0  0  0  0  0  0  0  0
    4.3840   -6.3790  -27.0990 H   0  0  0  0  0  0  0  0  0  0  0  0
  1  9  1  0  0  0  0
  2  1  2  0  0  0  0
  3  2  1  0  0  0  0
  4  3  2  0  0  0  0
  4  5  1  0  0  0  0
  5  6  2  0  0  0  0
  6  1  1  0  0  0  0
  7  9  1  0  0  0  0
  7  8  2  0  0  0  0
  9 10  1  0  0  0  0
 11 19  1  0  0  0  0
 11 13  1  0  0  0  0
 12 11  1  0  0  0  0
 13 14  1  0  0  0  0
 14 15  2  0  0  0  0
 16 15  1  0  0  0  0
 16  7  1  0  0  0  0
 17 16  2  0  0  0  0
 18 13  2  0  0  0  0
 18 17  1  0  0  0  0
 20 19  1  0  0  0  0
 21 22  1  0  0  0  0
 22 20  1  0  0  0  0
 23  5  1  0  0  0  0
 24 23  1  0  0  0  0
 25 24  1  0  0  0  0
 26 27  1  0  0  0  0
 26 24  1  0  0  0  0
 28 27  2  0  0  0  0
 29 28  1  0  0  0  0
 30 29  2  0  0  0  0
 30 35  1  0  0  0  0
 31 30  1  0  0  0  0
 32 33  1  0  0  0  0
 32 31  2  0  0  0  0
 33 34  2  0  0  0  0
 34 35  1  0  0  0  0
 35 26  2  0  0  0  0
 36 31  1  0  0  0  0
 36 37  1  0  0  0  0
 37 40  1  0  0  0  0
 38 36  2  0  0  0  0
 39 37  1  0  0  0  0
M  END
>  <minimizedAffinity>
-8.0556736

$$$$

 OpenBabel10152419453D

 40 43  0  0  0  0  0  0  0  0999 V2000
   -1.5920  -10.5830  -21.6630 C   0  0  0  0  0  0  0  0  0  0  0  0
   -1.9400  -11.8990  -21.3530 C   0  0  0  0  0  3  0  0  0  0  0  0
   -1.2110  -12.9550  -21.8880 C   0  0  0  0  0  3  0  0  0  0  0  0
   -0.1100  -12.6940  -22.7000 C   0  0  0  0  0  3  0  0  0  0  0  0
    0.3280  -11.3830  -22.9490 C   0  0  0  0  0  0  0  0  0  0  0  0
   -0.4360  -10.3300  -22.4190 C   0  0  0  0  0  3  0  0  0  0  0  0
   -2.4530   -8.2210  -21.4220 C   0  0  0  0  0  0  0  0  0  0  0  0
   -3.0600   -7.4580  -20.6720 O   0  0  0  0  0  0  0  0  0  0  0  0
   -2.4360   -9.5730  -21.1710 N   0  0  0  0  0  0  0  0  0  0  0  0
   -3.1650   -9.8560  -20.5250 H   0  0  0  0  0  0  0  0  0  0  0  0
   -0.3450   -6.2800  -26.2770 N   0  0  0  0  0  0  0  0  0  0  0  0
   -0.8320   -6.9880  -27.4540 C   0  0  0  0  0  1  0  0  0  0  0  0
   -0.7950   -6.7310  -25.0510 C   0  0  0  0  0  0  0  0  0  0  0  0
   -0.4160   -6.1500  -23.8400 C   0  0  0  0  0  3  0  0  0  0  0  0
   -0.9320   -6.6240  -22.6300 C   0  0  0  0  0  3  0  0  0  0  0  0
   -1.8430   -7.6710  -22.6450 C   0  0  0  0  0  0  0  0  0  0  0  0
   -2.1430   -8.2380  -23.8660 C   0  0  0  0  0  3  0  0  0  0  0  0
   -1.6570   -7.7790  -25.0460 N   0  0  0  0  0  0  0  0  0  0  0  0
    0.5330   -5.1270  -26.4800 C   0  0  0  0  0  2  0  0  0  0  0  0
    0.8060   -4.8270  -27.9630 C   0  0  0  0  0  2  0  0  0  0  0  0
    0.0110   -2.6750  -27.3230 C   0  0  0  0  0  1  0  0  0  0  0  0
    0.7070   -3.4410  -28.2960 O   0  0  0  0  0  0  0  0  0  0  0  0
    1.5450  -11.1020  -23.8200 C   0  0  0  0  0  2  0  0  0  0  0  0
    1.2530  -10.2230  -24.9390 N   0  0  0  0  0  0  0  0  0  0  0  0
    0.3010   -9.9370  -25.0950 H   0  0  0  0  0  0  0  0  0  0  0  0
    2.2990   -9.5740  -25.5840 C   0  0  0  0  0  0  0  0  0  0  0  0
    2.2950   -8.2300  -25.5460 N   0  0  0  0  0  0  0  0  0  0  0  0
    3.0120   -7.6020  -26.4750 C   0  0  0  0  0  3  0  0  0  0  0  0
    3.6360   -8.1920  -27.4960 N   0  0  0  0  0  0  0  0  0  0  0  0
    3.6960   -9.5380  -27.4910 C   0  0  0  0  0  0  0  0  0  0  0  0
    4.2840  -10.2530  -28.5390 C   0  0  0  0  0  0  0  0  0  0  0  0
    4.5000  -11.6380  -28.4970 C   0  0  0  0  0  3  0  0  0  0  0  0
    4.0460  -12.3630  -27.4090 C   0  0  0  0  0  3  0  0  0  0  0  0
    3.3200  -11.7050  -26.4220 C   0  0  0  0  0  3  0  0  0  0  0  0
    3.1230  -10.2970  -26.4650 C   0  0  0  0  0  0  0  0  0  0  0  0
    4.5210   -9.5930  -29.8350 C   0  0  0  0  0  0  0  0  0  0  0  0
    4.7220   -8.2390  -29.7550 N   0  0  0  0  0  0  0  0  0  0  0  0
    4.4200  -10.1850  -30.8960 O   0  0  0  0  0  0  0  0  0  0  0  0
    4.8430   -7.7170  -30.6110 H   0  0  0  0  0  0  0  0  0  0  0  0
    4.7620   -7.7470  -28.8730 H   0  0  0  0  0  0  0  0  0  0  0  0
  1  2  1  0  0  0  0
  1  9  1  0  0  0  0
  3  2  2  0  0  0  0
  4  3  1  0  0  0  0
  5  4  2  0  0  0  0
  5  6  1  0  0  0  0
  6  1  2  0  0  0  0
  7  9  1  0  0  0  0
  7  8  2  0  0  0  0
  9 10  1  0  0  0  0
 11 13  1  0  0  0  0
 12 11  1  0  0  0  0
 13 18  2  0  0  0  0
 13 14  1  0  0  0  0
 14 15  2  0  0  0  0
 16 15  1  0  0  0  0
 16  7  1  0  0  0  0
 17 16  2  0  0  0  0
 18 17  1  0  0  0  0
 19 11  1  0  0  0  0
 20 19  1  0  0  0  0
 22 20  1  0  0  0  0
 22 21  1  0  0  0  0
 23  5  1  0  0  0  0
 24 23  1  0  0  0  0
 25 24  1  0  0  0  0
 26 27  1  0  0  0  0
 26 24  1  0  0  0  0
 28 27  2  0  0  0  0
 29 30  2  0  0  0  0
 29 28  1  0  0  0  0
 30 35  1  0  0  0  0
 31 32  2  0  0  0  0
 31 30  1  0  0  0  0
 32 33  1  0  0  0  0
 33 34  2  0  0  0  0
 35 34  1  0  0  0  0
 35 26  2  0  0  0  0
 36 37  1  0  0  0  0
 36 31  1  0  0  0  0
 37 40  1  0  0  0  0
 38 36  2  0  0  0  0
 39 37  1  0  0  0  0
M  END
>  <minimizedAffinity>
-7.39761496

$$$$

 OpenBabel10152419453D

 40 43  0  0  0  0  0  0  0  0999 V2000
   -0.2850   -4.1210  -25.6120 C   0  0  0  0  0  0  0  0  0  0  0  0
   -0.6170   -2.8700  -26.1350 C   0  0  0  0  0  3  0  0  0  0  0  0
   -0.2590   -2.5440  -27.4380 C   0  0  0  0  0  3  0  0  0  0  0  0
    0.3950   -3.4830  -28.2310 C   0  0  0  0  0  3  0  0  0  0  0  0
    0.6520   -4.7850  -27.7710 C   0  0  0  0  0  0  0  0  0  0  0  0
    0.3040   -5.0860  -26.4430 C   0  0  0  0  0  3  0  0  0  0  0  0
   -0.9580   -5.4890  -23.5990 C   0  0  0  0  0  0  0  0  0  0  0  0
   -1.4740   -5.4260  -22.4840 O   0  0  0  0  0  0  0  0  0  0  0  0
   -0.5860   -4.3400  -24.2570 N   0  0  0  0  0  0  0  0  0  0  0  0
   -0.5250   -3.5410  -23.6360 H   0  0  0  0  0  0  0  0  0  0  0  0
   -0.0910  -10.6230  -25.7620 N   0  0  0  0  0  0  0  0  0  0  0  0
   -1.2710  -11.4780  -25.7400 C   0  0  0  0  0  1  0  0  0  0  0  0
   -0.2270   -9.3630  -25.2120 C   0  0  0  0  0  0  0  0  0  0  0  0
    0.8170   -8.4360  -25.1650 C   0  0  0  0  0  3  0  0  0  0  0  0
    0.6130   -7.1600  -24.6300 C   0  0  0  0  0  3  0  0  0  0  0  0
   -0.6470   -6.8160  -24.1590 C   0  0  0  0  0  0  0  0  0  0  0  0
   -1.6260   -7.7870  -24.1850 C   0  0  0  0  0  3  0  0  0  0  0  0
   -1.4420   -9.0230  -24.7120 N   0  0  0  0  0  0  0  0  0  0  0  0
    1.1200  -11.1370  -26.4020 C   0  0  0  0  0  2  0  0  0  0  0  0
    1.6680  -12.4070  -25.7300 C   0  0  0  0  0  2  0  0  0  0  0  0
    1.4960  -12.6980  -23.3730 C   0  0  0  0  0  1  0  0  0  0  0  0
    2.2570  -12.1720  -24.4500 O   0  0  0  0  0  0  0  0  0  0  0  0
    1.3490   -5.8160  -28.6480 C   0  0  0  0  0  2  0  0  0  0  0  0
    2.3830   -6.5570  -27.9460 N   0  0  0  0  0  0  0  0  0  0  0  0
    2.2780   -6.7160  -26.9580 H   0  0  0  0  0  0  0  0  0  0  0  0
    3.3260   -7.2670  -28.6780 C   0  0  0  0  0  0  0  0  0  0  0  0
    3.4400   -6.9590  -29.9830 N   0  0  0  0  0  0  0  0  0  0  0  0
    4.0030   -7.8750  -30.7680 C   0  0  0  0  0  3  0  0  0  0  0  0
    4.3590   -9.1030  -30.3870 N   0  0  0  0  0  0  0  0  0  0  0  0
    4.3090   -9.3810  -29.0690 C   0  0  0  0  0  0  0  0  0  0  0  0
    4.6130  -10.6530  -28.5730 C   0  0  0  0  0  0  0  0  0  0  0  0
    4.7200  -10.9380  -27.2050 C   0  0  0  0  0  3  0  0  0  0  0  0
    4.4380   -9.9460  -26.2810 C   0  0  0  0  0  3  0  0  0  0  0  0
    3.9810   -8.7140  -26.7390 C   0  0  0  0  0  3  0  0  0  0  0  0
    3.8940   -8.4300  -28.1300 C   0  0  0  0  0  0  0  0  0  0  0  0
    4.6380  -11.8100  -29.4860 C   0  0  0  0  0  0  0  0  0  0  0  0
    4.5750  -11.4850  -30.8170 N   0  0  0  0  0  0  0  0  0  0  0  0
    4.5900  -12.9590  -29.0820 O   0  0  0  0  0  0  0  0  0  0  0  0
    4.5390  -12.2330  -31.4950 H   0  0  0  0  0  0  0  0  0  0  0  0
    4.5720  -10.5290  -31.1440 H   0  0  0  0  0  0  0  0  0  0  0  0
  1  9  1  0  0  0  0
  2  1  1  0  0  0  0
  3  2  2  0  0  0  0
  4  5  2  0  0  0  0
  4  3  1  0  0  0  0
  5  6  1  0  0  0  0
  6  1  2  0  0  0  0
  7  8  2  0  0  0  0
  9 10  1  0  0  0  0
  9  7  1  0  0  0  0
 11 12  1  0  0  0  0
 11 13  1  0  0  0  0
 13 14  2  0  0  0  0
 13 18  1  0  0  0  0
 14 15  1  0  0  0  0
 15 16  2  0  0  0  0
 16  7  1  0  0  0  0
 17 16  1  0  0  0  0
 18 17  2  0  0  0  0
 19 11  1  0  0  0  0
 19 20  1  0  0  0  0
 20 22  1  0  0  0  0
 22 21  1  0  0  0  0
 23 24  1  0  0  0  0
 23  5  1  0  0  0  0
 24 25  1  0  0  0  0
 26 35  1  0  0  0  0
 26 24  1  0  0  0  0
 27 26  2  0  0  0  0
 28 29  2  0  0  0  0
 28 27  1  0  0  0  0
 29 30  1  0  0  0  0
 30 31  2  0  0  0  0
 30 35  1  0  0  0  0
 31 32  1  0  0  0  0
 32 33  2  0  0  0  0
 34 33  1  0  0  0  0
 35 34  2  0  0  0  0
 36 38  2  0  0  0  0
 36 31  1  0  0  0  0
 37 36  1  0  0  0  0
 39 37  1  0  0  0  0
 40 37  1  0  0  0  0
M  END
>  <minimizedAffinity>
-6.82383776

$$$$

 OpenBabel10152419453D

 40 43  0  0  0  0  0  0  0  0999 V2000
    2.4620   -6.1220  -28.5810 C   0  0  0  0  0  0  0  0  0  0  0  0
    2.4940   -6.7050  -29.8490 C   0  0  0  0  0  3  0  0  0  0  0  0
    3.1900   -7.8910  -30.0510 C   0  0  0  0  0  3  0  0  0  0  0  0
    3.8210   -8.5150  -28.9770 C   0  0  0  0  0  3  0  0  0  0  0  0
    3.7230   -8.0090  -27.6710 C   0  0  0  0  0  0  0  0  0  0  0  0
    3.0350   -6.7970  -27.4920 C   0  0  0  0  0  3  0  0  0  0  0  0
    0.6640   -4.5120  -27.8360 C   0  0  0  0  0  0  0  0  0  0  0  0
    0.1110   -3.4480  -28.1080 O   0  0  0  0  0  0  0  0  0  0  0  0
    1.8270   -4.8730  -28.4760 N   0  0  0  0  0  0  0  0  0  0  0  0
    2.2770   -4.0870  -28.9310 H   0  0  0  0  0  0  0  0  0  0  0  0
   -1.4700   -7.3750  -23.4720 N   0  0  0  0  0  0  0  0  0  0  0  0
   -1.5590   -6.5960  -22.2450 C   0  0  0  0  0  1  0  0  0  0  0  0
   -0.9210   -6.7430  -24.5710 C   0  0  0  0  0  0  0  0  0  0  0  0
   -0.7730   -7.3630  -25.8130 C   0  0  0  0  0  3  0  0  0  0  0  0
   -0.2450   -6.6630  -26.9020 C   0  0  0  0  0  3  0  0  0  0  0  0
    0.1180   -5.3320  -26.7400 C   0  0  0  0  0  0  0  0  0  0  0  0
   -0.0030   -4.7860  -25.4800 C   0  0  0  0  0  3  0  0  0  0  0  0
   -0.5250   -5.4530  -24.4210 N   0  0  0  0  0  0  0  0  0  0  0  0
   -2.0070   -8.7360  -23.4660 C   0  0  0  0  0  2  0  0  0  0  0  0
   -2.2230   -9.2960  -22.0500 C   0  0  0  0  0  2  0  0  0  0  0  0
   -1.8070  -11.3230  -20.8720 C   0  0  0  0  0  1  0  0  0  0  0  0
   -2.3960  -10.7130  -22.0120 O   0  0  0  0  0  0  0  0  0  0  0  0
    4.3960   -8.7050  -26.4950 C   0  0  0  0  0  2  0  0  0  0  0  0
    4.7220  -10.0950  -26.7660 N   0  0  0  0  0  0  0  0  0  0  0  0
    5.6900  -10.3630  -26.8220 H   0  0  0  0  0  0  0  0  0  0  0  0
    3.7280  -11.0590  -26.6560 C   0  0  0  0  0  0  0  0  0  0  0  0
    3.6390  -11.9560  -27.6540 N   0  0  0  0  0  0  0  0  0  0  0  0
    2.4790  -12.5960  -27.7830 C   0  0  0  0  0  3  0  0  0  0  0  0
    1.3760  -12.3420  -27.0770 N   0  0  0  0  0  0  0  0  0  0  0  0
    1.4900  -11.4950  -26.0350 C   0  0  0  0  0  0  0  0  0  0  0  0
    0.3840  -11.1250  -25.2640 C   0  0  0  0  0  0  0  0  0  0  0  0
    0.4860  -10.3730  -24.0850 C   0  0  0  0  0  3  0  0  0  0  0  0
    1.7250   -9.8970  -23.6910 C   0  0  0  0  0  3  0  0  0  0  0  0
    2.8210  -10.1150  -24.5180 C   0  0  0  0  0  3  0  0  0  0  0  0
    2.7090  -10.8960  -25.7020 C   0  0  0  0  0  0  0  0  0  0  0  0
   -0.9790  -11.3490  -25.7800 C   0  0  0  0  0  0  0  0  0  0  0  0
   -1.3220  -10.5520  -26.8410 N   0  0  0  0  0  0  0  0  0  0  0  0
   -1.7720  -12.0890  -25.2250 O   0  0  0  0  0  0  0  0  0  0  0  0
   -2.2590  -10.6190  -27.2130 H   0  0  0  0  0  0  0  0  0  0  0  0
   -0.6730   -9.9070  -27.2700 H   0  0  0  0  0  0  0  0  0  0  0  0
  1  9  1  0  0  0  0
  1  6  1  0  0  0  0
  2  1  2  0  0  0  0
  3  2  1  0  0  0  0
  3  4  2  0  0  0  0
  4  5  1  0  0  0  0
  5  6  2  0  0  0  0
  5 23  1  0  0  0  0
  7 16  1  0  0  0  0
  8  7  2  0  0  0  0
  9  7  1  0  0  0  0
 10  9  1  0  0  0  0
 11 19  1  0  0  0  0
 11 12  1  0  0  0  0
 13 18  1  0  0  0  0
 13 11  1  0  0  0  0
 14 13  2  0  0  0  0
 15 16  2  0  0  0  0
 15 14  1  0  0  0  0
 16 17  1  0  0  0  0
 17 18  2  0  0  0  0
 19 20  1  0  0  0  0
 20 22  1  0  0  0  0
 22 21  1  0  0  0  0
 24 26  1  0  0  0  0
 24 23  1  0  0  0  0
 25 24  1  0  0  0  0
 26 35  1  0  0  0  0
 27 26  2  0  0  0  0
 28 27  1  0  0  0  0
 28 29  2  0  0  0  0
 29 30  1  0  0  0  0
 30 35  2  0  0  0  0
 30 31  1  0  0  0  0
 31 32  2  0  0  0  0
 32 33  1  0  0  0  0
 34 33  2  0  0  0  0
 35 34  1  0  0  0  0
 36 31  1  0  0  0  0
 36 38  2  0  0  0  0
 37 36  1  0  0  0  0
 39 37  1  0  0  0  0
 40 37  1  0  0  0  0
M  END
>  <minimizedAffinity>
-6.64261198

$$$$

 OpenBabel10152419453D

 40 43  0  0  0  0  0  0  0  0999 V2000
   -0.2470   -5.5270  -25.7920 C   0  0  0  0  0  0  0  0  0  0  0  0
   -1.4440   -5.8880  -26.4140 C   0  0  0  0  0  3  0  0  0  0  0  0
   -1.4570   -6.1950  -27.7700 C   0  0  0  0  0  3  0  0  0  0  0  0
   -0.2680   -6.1810  -28.4950 C   0  0  0  0  0  3  0  0  0  0  0  0
    0.9670   -5.9220  -27.8780 C   0  0  0  0  0  0  0  0  0  0  0  0
    0.9560   -5.5910  -26.5130 C   0  0  0  0  0  3  0  0  0  0  0  0
   -0.8360   -5.7870  -23.3500 C   0  0  0  0  0  0  0  0  0  0  0  0
   -1.0980   -5.1660  -22.3210 O   0  0  0  0  0  0  0  0  0  0  0  0
   -0.3290   -5.1300  -24.4470 N   0  0  0  0  0  0  0  0  0  0  0  0
    0.0420   -4.2160  -24.2130 H   0  0  0  0  0  0  0  0  0  0  0  0
   -1.1670  -11.4100  -23.5960 N   0  0  0  0  0  0  0  0  0  0  0  0
   -0.7530  -11.9680  -24.8760 C   0  0  0  0  0  1  0  0  0  0  0  0
   -1.1450  -10.0340  -23.4820 C   0  0  0  0  0  0  0  0  0  0  0  0
   -1.5130   -9.3590  -22.3160 C   0  0  0  0  0  3  0  0  0  0  0  0
   -1.4350   -7.9650  -22.2440 C   0  0  0  0  0  3  0  0  0  0  0  0
   -0.9700   -7.2550  -23.3430 C   0  0  0  0  0  0  0  0  0  0  0  0
   -0.6680   -7.9680  -24.4840 C   0  0  0  0  0  3  0  0  0  0  0  0
   -0.7290   -9.3210  -24.5600 N   0  0  0  0  0  0  0  0  0  0  0  0
   -1.5250  -12.3380  -22.5220 C   0  0  0  0  0  2  0  0  0  0  0  0
   -0.3360  -12.7050  -21.6180 C   0  0  0  0  0  2  0  0  0  0  0  0
   -1.9500  -12.4100  -19.8910 C   0  0  0  0  0  1  0  0  0  0  0  0
   -0.5720  -12.4560  -20.2310 O   0  0  0  0  0  0  0  0  0  0  0  0
    2.2680   -5.9280  -28.6690 C   0  0  0  0  0  2  0  0  0  0  0  0
    3.4190   -6.3160  -27.8710 N   0  0  0  0  0  0  0  0  0  0  0  0
    3.6800   -5.7420  -27.0870 H   0  0  0  0  0  0  0  0  0  0  0  0
    3.9490   -7.5910  -28.0190 C   0  0  0  0  0  0  0  0  0  0  0  0
    4.5850   -7.8540  -29.1750 N   0  0  0  0  0  0  0  0  0  0  0  0
    4.7210   -9.1370  -29.5060 C   0  0  0  0  0  3  0  0  0  0  0  0
    4.1850  -10.1640  -28.8440 N   0  0  0  0  0  0  0  0  0  0  0  0
    3.6110   -9.9020  -27.6530 C   0  0  0  0  0  0  0  0  0  0  0  0
    2.9780  -10.9000  -26.9060 C   0  0  0  0  0  0  0  0  0  0  0  0
    2.5070  -10.6990  -25.6010 C   0  0  0  0  0  3  0  0  0  0  0  0
    2.5910   -9.4390  -25.0360 C   0  0  0  0  0  3  0  0  0  0  0  0
    3.0730   -8.3880  -25.8100 C   0  0  0  0  0  3  0  0  0  0  0  0
    3.5660   -8.6070  -27.1260 C   0  0  0  0  0  0  0  0  0  0  0  0
    2.5970  -12.1700  -27.5510 C   0  0  0  0  0  0  0  0  0  0  0  0
    3.1680  -12.3760  -28.7800 N   0  0  0  0  0  0  0  0  0  0  0  0
    1.7490  -12.9090  -27.0830 O   0  0  0  0  0  0  0  0  0  0  0  0
    2.9120  -13.2040  -29.2990 H   0  0  0  0  0  0  0  0  0  0  0  0
    3.8390  -11.7370  -29.1820 H   0  0  0  0  0  0  0  0  0  0  0  0
  1  9  1  0  0  0  0
  2  1  1  0  0  0  0
  3  2  2  0  0  0  0
  4  5  2  0  0  0  0
  4  3  1  0  0  0  0
  5  6  1  0  0  0  0
  6  1  2  0  0  0  0
  7 16  1  0  0  0  0
  7  8  2  0  0  0  0
  9 10  1  0  0  0  0
  9  7  1  0  0  0  0
 11 13  1  0  0  0  0
 11 19  1  0  0  0  0
 12 11  1  0  0  0  0
 13 14  1  0  0  0  0
 14 15  2  0  0  0  0
 16 15  1  0  0  0  0
 17 16  2  0  0  0  0
 18 17  1  0  0  0  0
 18 13  2  0  0  0  0
 19 20  1  0  0  0  0
 20 22  1  0  0  0  0
 22 21  1  0  0  0  0
 23  5  1  0  0  0  0
 23 24  1  0  0  0  0
 24 25  1  0  0  0  0
 26 24  1  0  0  0  0
 26 35  1  0  0  0  0
 27 26  2  0  0  0  0
 28 27  1  0  0  0  0
 28 29  2  0  0  0  0
 29 30  1  0  0  0  0
 30 35  2  0  0  0  0
 30 31  1  0  0  0  0
 31 32  2  0  0  0  0
 32 33  1  0  0  0  0
 34 33  2  0  0  0  0
 35 34  1  0  0  0  0
 36 38  2  0  0  0  0
 36 31  1  0  0  0  0
 37 36  1  0  0  0  0
 39 37  1  0  0  0  0
 40 37  1  0  0  0  0
M  END
>  <minimizedAffinity>
-6.4721384

$$$$
