
 OpenBabel10152419453D

 40 43  0  0  0  0  0  0  0  0999 V2000
   -2.4200   -8.8450  -21.7470 C   0  0  0  0  0  0  0  0  0  0  0  0
   -3.5880   -8.6760  -22.4910 C   0  0  0  0  0  3  0  0  0  0  0  0
   -3.7410   -7.5560  -23.3010 C   0  0  0  0  0  3  0  0  0  0  0  0
   -2.7090   -6.6260  -23.3970 C   0  0  0  0  0  3  0  0  0  0  0  0
   -1.4810   -6.8170  -22.7420 C   0  0  0  0  0  0  0  0  0  0  0  0
   -1.3560   -7.9430  -21.9100 C   0  0  0  0  0  3  0  0  0  0  0  0
   -1.9670  -11.2400  -21.0860 C   0  0  0  0  0  0  0  0  0  0  0  0
   -2.2900  -12.1300  -20.3010 O   0  0  0  0  0  0  0  0  0  0  0  0
   -2.3800   -9.9450  -20.8740 N   0  0  0  0  0  0  0  0  0  0  0  0
   -2.6960   -9.7910  -19.9230 H   0  0  0  0  0  0  0  0  0  0  0  0
    1.4110  -12.2740  -25.4800 N   0  0  0  0  0  0  0  0  0  0  0  0
    0.9320  -11.7110  -26.7350 C   0  0  0  0  0  1  0  0  0  0  0  0
    0.6100  -12.0870  -24.3700 C   0  0  0  0  0  0  0  0  0  0  0  0
    0.9410  -12.5680  -23.1010 C   0  0  0  0  0  3  0  0  0  0  0  0
    0.1100  -12.3180  -22.0050 C   0  0  0  0  0  3  0  0  0  0  0  0
   -1.0450  -11.5690  -22.1860 C   0  0  0  0  0  0  0  0  0  0  0  0
   -1.3470  -11.1620  -23.4690 C   0  0  0  0  0  3  0  0  0  0  0  0
   -0.5420  -11.3900  -24.5370 N   0  0  0  0  0  0  0  0  0  0  0  0
    2.7130  -12.9420  -25.4760 C   0  0  0  0  0  2  0  0  0  0  0  0
    3.8880  -11.9820  -25.7250 C   0  0  0  0  0  2  0  0  0  0  0  0
    4.2470  -10.6760  -27.6840 C   0  0  0  0  0  1  0  0  0  0  0  0
    4.3330  -11.9600  -27.0830 O   0  0  0  0  0  0  0  0  0  0  0  0
   -0.3470   -5.8090  -22.8650 C   0  0  0  0  0  2  0  0  0  0  0  0
   -0.0580   -5.4420  -24.2410 N   0  0  0  0  0  0  0  0  0  0  0  0
    0.0670   -4.4690  -24.4670 H   0  0  0  0  0  0  0  0  0  0  0  0
    0.3210   -6.4290  -25.1420 C   0  0  0  0  0  0  0  0  0  0  0  0
    0.6330   -7.6320  -24.6290 N   0  0  0  0  0  0  0  0  0  0  0  0
    1.3790   -8.4320  -25.3880 C   0  0  0  0  0  3  0  0  0  0  0  0
    1.9260   -8.0950  -26.5570 N   0  0  0  0  0  0  0  0  0  0  0  0
    1.5540   -6.9180  -27.0990 C   0  0  0  0  0  0  0  0  0  0  0  0
    2.1070   -6.4510  -28.2950 C   0  0  0  0  0  0  0  0  0  0  0  0
    1.6370   -5.3130  -28.9650 C   0  0  0  0  0  3  0  0  0  0  0  0
    0.6310   -4.5550  -28.3900 C   0  0  0  0  0  3  0  0  0  0  0  0
    0.1670   -4.9050  -27.1260 C   0  0  0  0  0  3  0  0  0  0  0  0
    0.6370   -6.0730  -26.4650 C   0  0  0  0  0  0  0  0  0  0  0  0
    3.3590   -7.0390  -28.8040 C   0  0  0  0  0  0  0  0  0  0  0  0
    4.4490   -6.8390  -27.9960 N   0  0  0  0  0  0  0  0  0  0  0  0
    3.4390   -7.5460  -29.9090 O   0  0  0  0  0  0  0  0  0  0  0  0
    5.3500   -7.1740  -28.3090 H   0  0  0  0  0  0  0  0  0  0  0  0
    4.3840   -6.3790  -27.0990 H   0  0  0  0  0  0  0  0  0  0  0  0
  1  9  1  0  0  0  0
  2  1  2  0  0  0  0
  3  2  1  0  0  0  0
  4  3  2  0  0  0  0
  4  5  1  0  0  0  0
  5  6  2  0  0  0  0
  6  1  1  0  0  0  0
  7  9  1  0  0  0  0
  7  8  2  0  0  0  0
  9 10  1  0  0  0  0
 11 19  1  0  0  0  0
 11 13  1  0  0  0  0
 12 11  1  0  0  0  0
 13 14  1  0  0  0  0
 14 15  2  0  0  0  0
 16 15  1  0  0  0  0
 16  7  1  0  0  0  0
 17 16  2  0  0  0  0
 18 13  2  0  0  0  0
 18 17  1  0  0  0  0
 20 19  1  0  0  0  0
 21 22  1  0  0  0  0
 22 20  1  0  0  0  0
 23  5  1  0  0  0  0
 24 23  1  0  0  0  0
 25 24  1  0  0  0  0
 26 27  1  0  0  0  0
 26 24  1  0  0  0  0
 28 27  2  0  0  0  0
 29 28  1  0  0  0  0
 30 29  2  0  0  0  0
 30 35  1  0  0  0  0
 31 30  1  0  0  0  0
 32 33  1  0  0  0  0
 32 31  2  0  0  0  0
 33 34  2  0  0  0  0
 34 35  1  0  0  0  0
 35 26  2  0  0  0  0
 36 31  1  0  0  0  0
 36 37  1  0  0  0  0
 37 40  1  0  0  0  0
 38 36  2  0  0  0  0
 39 37  1  0  0  0  0
M  END
>  <minimizedAffinity>
-8.0556736

$$$$
