REMARK  Name = 
REMARK  11 active torsions:
REMARK  status: ('A' for Active; 'I' for Inactive)
REMARK    1  A    between atoms: C_1  and  O_2
REMARK    2  A    between atoms: O_2  and  C_3
REMARK    3  A    between atoms: C_3  and  C_4
REMARK    4  A    between atoms: C_4  and  N_5
REMARK    5  A    between atoms: N_5  and  C_6
REMARK    6  A    between atoms: C_10  and  C_11
REMARK    7  A    between atoms: N_13  and  C_14
REMARK    8  A    between atoms: C_18  and  C_19
REMARK    9  A    between atoms: C_19  and  N_20
REMARK   10  A    between atoms: N_20  and  C_21
REMARK   11  A    between atoms: C_26  and  C_27
REMARK                            x       y       z     vdW  Elec       q    Type
REMARK                         _______ _______ _______ _____ _____    ______ ____
ROOT
ATOM      1  C   UNL     1       1.217   1.831   3.383  0.00  0.00    +0.034 A 
ATOM      2  C   UNL     1       0.812   1.385   4.642  0.00  0.00    +0.023 A 
ATOM      3  C   UNL     1       1.164   0.112   5.075  0.00  0.00    +0.002 A 
ATOM      4  C   UNL     1       1.955  -0.700   4.266  0.00  0.00    +0.005 A 
ATOM      5  C   UNL     1       2.464  -0.244   3.039  0.00  0.00    -0.029 A 
ATOM      6  C   UNL     1       2.077   1.036   2.609  0.00  0.00    +0.028 A 
ENDROOT
BRANCH   1   9
ATOM      7  C   UNL     1       0.567   3.609   1.711  0.00  0.00    +0.250 C 
ATOM      8  O   UNL     1       0.428   4.821   1.556  0.00  0.00    -0.270 OA
ATOM      9  N   UNL     1       0.737   3.086   2.972  0.00  0.00    -0.281 N 
ATOM     10  H   UNL     1       0.458   3.734   3.700  0.00  0.00    +0.155 HD
BRANCH   7  16
ATOM     11  N   UNL     1       0.323   0.391  -2.912  0.00  0.00    -0.316 N 
ATOM     12  C   UNL     1       1.096   0.911  -4.032  0.00  0.00    +0.130 C 
ATOM     13  C   UNL     1       0.311   1.152  -1.759  0.00  0.00    +0.121 A 
ATOM     14  C   UNL     1      -0.384   0.779  -0.607  0.00  0.00    +0.044 A 
ATOM     15  C   UNL     1      -0.331   1.570   0.545  0.00  0.00    +0.018 A 
ATOM     16  C   UNL     1       0.437   2.727   0.538  0.00  0.00    +0.055 A 
ATOM     17  C   UNL     1       1.061   3.072  -0.642  0.00  0.00    +0.126 A 
ATOM     18  N   UNL     1       1.025   2.306  -1.761  0.00  0.00    -0.240 NA
BRANCH  11  19
ATOM     19  C   UNL     1      -0.334  -0.907  -3.071  0.00  0.00    +0.134 C 
BRANCH  19  20
ATOM     20  C   UNL     1       0.635  -2.095  -2.954  0.00  0.00    +0.178 C 
BRANCH  20  22
ATOM     21  C   UNL     1       2.229  -1.616  -1.251  0.00  0.00    +0.194 C 
ATOM     22  O   UNL     1       1.071  -2.352  -1.618  0.00  0.00    -0.381 OA
ENDBRANCH  20  22
ENDBRANCH  19  20
ENDBRANCH  11  19
ENDBRANCH   7  16
ENDBRANCH   1   9
BRANCH   5  23
ATOM     23  C   UNL     1       3.346  -1.127   2.166  0.00  0.00    +0.138 C 
BRANCH  23  24
ATOM     24  N   UNL     1       4.637  -1.415   2.767  0.00  0.00    -0.324 N 
ATOM     25  H   UNL     1       5.412  -0.806   2.564  0.00  0.00    +0.148 HD
BRANCH  24  26
ATOM     26  C   UNL     1       4.712  -2.327   3.812  0.00  0.00    +0.130 A 
ATOM     27  N   UNL     1       3.873  -3.377   3.763  0.00  0.00    -0.220 NA
ATOM     28  C   UNL     1       3.633  -4.007   4.911  0.00  0.00    +0.223 A 
ATOM     29  N   UNL     1       4.067  -3.615   6.110  0.00  0.00    -0.235 NA
ATOM     30  C   UNL     1       4.961  -2.607   6.146  0.00  0.00    +0.088 A 
ATOM     31  C   UNL     1       5.439  -2.090   7.354  0.00  0.00    +0.063 A 
ATOM     32  C   UNL     1       6.478  -1.152   7.430  0.00  0.00    +0.015 A 
ATOM     33  C   UNL     1       7.017  -0.641   6.262  0.00  0.00    +0.002 A 
ATOM     34  C   UNL     1       6.458  -1.018   5.045  0.00  0.00    +0.013 A 
ATOM     35  C   UNL     1       5.417  -1.985   4.979  0.00  0.00    +0.041 A 
BRANCH  31  36
ATOM     36  C   UNL     1       4.718  -2.370   8.609  0.00  0.00    +0.244 C 
ATOM     37  N   UNL     1       3.457  -1.835   8.671  0.00  0.00    -0.325 N 
ATOM     38  O   UNL     1       5.250  -2.921   9.557  0.00  0.00    -0.270 OA
ATOM     39  H   UNL     1       2.926  -1.948   9.523  0.00  0.00    +0.145 HD
ATOM     40  H   UNL     1       3.037  -1.341   7.896  0.00  0.00    +0.145 HD
ENDBRANCH  31  36
ENDBRANCH  24  26
ENDBRANCH  23  24
ENDBRANCH   5  23
TORSDOF 9
