
 OpenBabel10152419103D

 37 40  0  0  0  0  0  0  0  0999 V2000
    9.9470  -11.3990   13.3170 C   0  0  0  0  0  0  0  0  0  0  0  0
   10.7160  -10.2440   13.1620 C   0  0  0  0  0  3  0  0  0  0  0  0
   10.1000   -8.9970   13.1790 C   0  0  0  0  0  3  0  0  0  0  0  0
    8.7240   -8.9040   13.3890 C   0  0  0  0  0  3  0  0  0  0  0  0
    7.9470  -10.0390   13.6680 C   0  0  0  0  0  0  0  0  0  0  0  0
    8.5860  -11.2880   13.6350 C   0  0  0  0  0  3  0  0  0  0  0  0
   10.0520  -13.9050   13.0920 C   0  0  0  0  0  0  0  0  0  0  0  0
   10.7810  -14.8920   13.1510 O   0  0  0  0  0  0  0  0  0  0  0  0
   10.5880  -12.6330   13.1160 N   0  0  0  0  0  0  0  0  0  0  0  0
   11.5790  -12.6200   12.9040 H   0  0  0  0  0  0  0  0  0  0  0  0
    5.7650  -14.2470   12.6510 C   0  0  0  0  0  0  0  0  0  0  0  0
    6.4400  -14.7010   13.8010 C   0  0  0  0  0  3  0  0  0  0  0  0
    7.8350  -14.6310   13.9300 C   0  0  0  0  0  3  0  0  0  0  0  0
    8.5940  -14.0910   12.8990 C   0  0  0  0  0  0  0  0  0  0  0  0
    7.9700  -13.7170   11.7080 C   0  0  0  0  0  3  0  0  0  0  0  0
    6.5760  -13.7830   11.6000 C   0  0  0  0  0  3  0  0  0  0  0  0
    3.5430  -14.2570   13.7560 C   0  0  0  0  0  1  0  0  0  0  0  0
    4.3770  -14.2530   12.5590 N   0  0  0  0  0  0  0  0  0  0  0  0
    3.7110  -14.4470   11.2770 C   0  0  0  0  0  1  0  0  0  0  0  0
    6.4510   -9.9450   13.9290 C   0  0  0  0  0  2  0  0  0  0  0  0
    5.7000  -10.9290   13.1670 N   0  0  0  0  0  0  0  0  0  0  0  0
    5.2500  -11.6810   13.6610 H   0  0  0  0  0  0  0  0  0  0  0  0
    5.3260  -10.6140   11.8680 C   0  0  0  0  0  0  0  0  0  0  0  0
    4.1860  -11.1700   11.4210 N   0  0  0  0  0  0  0  0  0  0  0  0
    3.9900  -11.1680   10.1050 C   0  0  0  0  0  3  0  0  0  0  0  0
    4.8690  -10.7480    9.1920 N   0  0  0  0  0  0  0  0  0  0  0  0
    5.9920  -10.1520    9.6370 C   0  0  0  0  0  0  0  0  0  0  0  0
    6.9890   -9.7250    8.7550 C   0  0  0  0  0  0  0  0  0  0  0  0
    8.1280   -9.0190    9.1670 C   0  0  0  0  0  3  0  0  0  0  0  0
    8.3230   -8.7750   10.5160 C   0  0  0  0  0  3  0  0  0  0  0  0
    7.4050   -9.2810   11.4320 C   0  0  0  0  0  3  0  0  0  0  0  0
    6.2420   -9.9800   11.0060 C   0  0  0  0  0  0  0  0  0  0  0  0
    6.9520  -10.1350    7.3400 C   0  0  0  0  0  0  0  0  0  0  0  0
    5.8610  -10.8840    6.9870 N   0  0  0  0  0  0  0  0  0  0  0  0
    7.8810   -9.9200    6.5800 O   0  0  0  0  0  0  0  0  0  0  0  0
    5.8010  -11.2250    6.0380 H   0  0  0  0  0  0  0  0  0  0  0  0
    5.1080  -11.0880    7.6290 H   0  0  0  0  0  0  0  0  0  0  0  0
  1  6  1  0  0  0  0
  2  3  1  0  0  0  0
  2  1  2  0  0  0  0
  3  4  2  0  0  0  0
  4  5  1  0  0  0  0
  5 20  1  0  0  0  0
  6  5  2  0  0  0  0
  7  9  1  0  0  0  0
  7  8  2  0  0  0  0
  9  1  1  0  0  0  0
 10  9  1  0  0  0  0
 11 12  1  0  0  0  0
 12 13  2  0  0  0  0
 14  7  1  0  0  0  0
 14 13  1  0  0  0  0
 15 14  2  0  0  0  0
 16 15  1  0  0  0  0
 16 11  2  0  0  0  0
 18 11  1  0  0  0  0
 18 17  1  0  0  0  0
 19 18  1  0  0  0  0
 21 22  1  0  0  0  0
 21 20  1  0  0  0  0
 23 21  1  0  0  0  0
 24 23  1  0  0  0  0
 25 24  2  0  0  0  0
 26 27  2  0  0  0  0
 26 25  1  0  0  0  0
 27 32  1  0  0  0  0
 28 29  2  0  0  0  0
 28 27  1  0  0  0  0
 29 30  1  0  0  0  0
 30 31  2  0  0  0  0
 32 31  1  0  0  0  0
 32 23  2  0  0  0  0
 33 28  1  0  0  0  0
 34 33  1  0  0  0  0
 34 37  1  0  0  0  0
 35 33  2  0  0  0  0
 36 34  1  0  0  0  0
M  END
>  <minimizedAffinity>
12.6263094

$$$$
