REMARK  Name = 
REMARK  6 active torsions:
REMARK  status: ('A' for Active; 'I' for Inactive)
REMARK    1  A    between atoms: C_3  and  C_5
REMARK    2  A    between atoms: C_5  and  C_6
REMARK    3  A    between atoms: C_6  and  C_7
REMARK    4  A    between atoms: C_11  and  N_12
REMARK    5  A    between atoms: C_21  and  O_22
REMARK    6  A    between atoms: O_22  and  C_23
REMARK                            x       y       z     vdW  Elec       q    Type
REMARK                         _______ _______ _______ _____ _____    ______ ____
ROOT
ATOM      1 CL   UNL     1       0.938  -0.079  -0.003  0.00  0.00    -0.145 Cl
ATOM      2  H   UNL     1       2.268  -0.079  -0.003  0.00  0.00    +0.145 HD
ENDROOT
TORSDOF 0
REMARK  Name = 
REMARK  6 active torsions:
REMARK  status: ('A' for Active; 'I' for Inactive)
REMARK    1  A    between atoms: C_3  and  C_5
REMARK    2  A    between atoms: C_5  and  C_6
REMARK    3  A    between atoms: C_6  and  C_7
REMARK    4  A    between atoms: C_11  and  N_12
REMARK    5  A    between atoms: C_21  and  O_22
REMARK    6  A    between atoms: O_22  and  C_23
REMARK                            x       y       z     vdW  Elec       q    Type
REMARK                         _______ _______ _______ _____ _____    ______ ____
ROOT
ATOM      1  C   UNL     1       3.056  -0.714   1.092  0.00  0.00    +0.016 C 
ATOM      2  C   UNL     1       2.713  -0.123   2.465  0.00  0.00    +0.017 C 
ATOM      3  C   UNL     1       3.258  -0.981   3.601  0.00  0.00    +0.045 C 
ATOM      4  C   UNL     1       2.757  -2.413   3.501  0.00  0.00    +0.174 C 
ATOM      5  C   UNL     1       3.116  -2.998   2.141  0.00  0.00    +0.045 C 
ATOM      6  C   UNL     1       2.557  -2.154   1.005  0.00  0.00    +0.017 C 
ENDROOT
BRANCH   1   8
ATOM      7  O   UNL     1       5.251   0.251   1.418  0.00  0.00    -0.549 OA
ATOM      8  C   UNL     1       4.560  -0.668   0.876  0.00  0.00    +0.048 C 
ATOM      9  O   UNL     1       5.194  -1.652   0.072  0.00  0.00    -0.549 OA
ENDBRANCH   1   8
BRANCH   1  10
ATOM     10  C   UNL     1       2.296   0.085   0.046  0.00  0.00    +0.068 C 
BRANCH  10  11
ATOM     11  C   UNL     1       2.812   1.503   0.229  0.00  0.00    +0.044 A 
ATOM     12  C   UNL     1       4.153   1.774   0.040  0.00  0.00    +0.023 A 
ATOM     13  C   UNL     1       4.652   3.038   0.364  0.00  0.00    +0.005 A 
ATOM     14  C   UNL     1       3.753   3.979   0.852  0.00  0.00    +0.044 A 
ATOM     15  C   UNL     1       2.428   3.633   0.987  0.00  0.00    +0.125 A 
ATOM     16  N   UNL     1       1.950   2.419   0.698  0.00  0.00    -0.237 NA
BRANCH  15  17
ATOM     17  N   UNL     1       1.489   4.653   1.475  0.00  0.00    -0.279 N 
ATOM     18  C   UNL     1       0.065   4.325   1.633  0.00  0.00    +0.163 A 
ATOM     19  N   UNL     1      -0.314   3.374   2.437  0.00  0.00    -0.233 NA
ATOM     20  C   UNL     1      -1.677   3.137   2.371  0.00  0.00    +0.120 A 
ATOM     21  C   UNL     1      -2.328   3.929   1.462  0.00  0.00    +0.068 A 
ATOM     22  S   UNL     1      -1.206   5.015   0.684  0.00  0.00    -0.061 S 
ATOM     23  H   UNL     1       1.826   5.588   1.703  0.00  0.00    +0.155 HD
ENDBRANCH  15  17
ENDBRANCH  10  11
ENDBRANCH   1  10
BRANCH   4  24
ATOM     24  O   UNL     1       1.345  -2.424   3.655  0.00  0.00    -0.486 OA
BRANCH  24  25
ATOM     25  C   UNL     1       0.526  -1.706   2.743  0.00  0.00    +0.157 A 
ATOM     26  C   UNL     1      -0.395  -0.760   3.142  0.00  0.00    +0.049 A 
ATOM     27  C   UNL     1      -1.247  -0.157   2.225  0.00  0.00    +0.005 A 
ATOM     28  C   UNL     1      -1.162  -0.520   0.882  0.00  0.00    +0.023 A 
ATOM     29  C   UNL     1      -0.237  -1.467   0.485  0.00  0.00    +0.080 A 
ATOM     30 CL   UNL     1      -0.094  -1.895  -1.186  0.00  0.00    -0.080 Cl
ATOM     31  C   UNL     1       0.590  -2.050   1.418  0.00  0.00    +0.183 A 
ATOM     32  F   UNL     1       1.503  -2.958   1.016  0.00  0.00    -0.200 F 
ENDBRANCH  24  25
ENDBRANCH   4  24
TORSDOF 6
