
 OpenBabel10152418273D

 38 41  0  0  0  0  0  0  0  0999 V2000
   -0.4260   -5.3270  -27.1070 C   0  0  0  0  0  0  0  0  0  0  0  0
   -0.2080   -3.9770  -26.8170 C   0  0  0  0  0  3  0  0  0  0  0  0
    0.8550   -3.2980  -27.4050 C   0  0  0  0  0  3  0  0  0  0  0  0
    1.7270   -3.9620  -28.2740 C   0  0  0  0  0  3  0  0  0  0  0  0
    1.5640   -5.3230  -28.5350 C   0  0  0  0  0  0  0  0  0  0  0  0
    0.4760   -5.9920  -27.9550 C   0  0  0  0  0  3  0  0  0  0  0  0
    2.3730   -6.0790  -29.4030 N   0  0  0  0  0  0  0  0  0  0  0  0
    3.1570   -7.1930  -29.2270 C   0  0  0  0  0  0  0  0  0  0  0  0
    3.9880   -7.4900  -30.0850 O   0  0  0  0  0  0  0  0  0  0  0  0
    2.4740   -5.7160  -30.3440 H   0  0  0  0  0  0  0  0  0  0  0  0
    2.9960   -8.1020  -28.0870 C   0  0  0  0  0  0  0  0  0  0  0  0
    2.3410   -7.7270  -26.9150 C   0  0  0  0  0  3  0  0  0  0  0  0
    2.1880   -8.6650  -25.8930 C   0  0  0  0  0  3  0  0  0  0  0  0
    2.6860   -9.9620  -26.0680 C   0  0  0  0  0  0  0  0  0  0  0  0
    3.2960  -10.3410  -27.2290 N   0  0  0  0  0  0  0  0  0  0  0  0
    3.4220   -9.4150  -28.2120 C   0  0  0  0  0  3  0  0  0  0  0  0
    2.4990  -10.9910  -24.9570 C   0  0  0  0  0  0  0  0  0  0  0  0
    1.9530  -10.4540  -23.8290 F   0  0  0  0  0  0  0  0  0  0  0  0
    1.6980  -12.0380  -25.3060 F   0  0  0  0  0  0  0  0  0  0  0  0
    3.6790  -11.5550  -24.5570 F   0  0  0  0  0  0  0  0  0  0  0  0
   -1.6080   -6.0560  -26.5140 C   0  0  0  0  0  2  0  0  0  0  0  0
   -1.2830  -10.8750  -22.7930 C   0  0  0  0  0  0  0  0  0  0  0  0
   -1.1230  -11.8950  -23.7430 C   0  0  0  0  0  3  0  0  0  0  0  0
   -1.0240  -11.5650  -25.0850 C   0  0  0  0  0  3  0  0  0  0  0  0
   -1.0860  -10.2240  -25.4560 C   0  0  0  0  0  3  0  0  0  0  0  0
   -1.2370   -9.1890  -24.4920 C   0  0  0  0  0  0  0  0  0  0  0  0
   -1.3110   -7.8160  -24.8100 C   0  0  0  0  0  0  0  0  0  0  0  0
   -1.2390   -7.4050  -26.1370 N   0  0  0  0  0  0  0  0  0  0  0  0
   -1.4970   -6.8790  -23.8670 N   0  0  0  0  0  0  0  0  0  0  0  0
   -1.5690   -7.2990  -22.6030 C   0  0  0  0  0  3  0  0  0  0  0  0
   -1.4790   -8.5660  -22.1910 N   0  0  0  0  0  0  0  0  0  0  0  0
   -1.3420   -9.5170  -23.1300 C   0  0  0  0  0  0  0  0  0  0  0  0
   -0.5100   -7.8340  -26.6880 H   0  0  0  0  0  0  0  0  0  0  0  0
   -2.4790  -10.7230  -20.7150 N   0  0  0  0  0  0  0  0  0  0  0  0
   -1.4330  -11.2900  -21.3870 C   0  0  0  0  0  0  0  0  0  0  0  0
   -0.6340  -12.0380  -20.8430 O   0  0  0  0  0  0  0  0  0  0  0  0
   -2.6060  -10.9830  -19.7460 H   0  0  0  0  0  0  0  0  0  0  0  0
   -3.1580  -10.1160  -21.1520 H   0  0  0  0  0  0  0  0  0  0  0  0
  1  2  1  0  0  0  0
  1 21  1  0  0  0  0
  3  2  2  0  0  0  0
  4  3  1  0  0  0  0
  5  4  2  0  0  0  0
  5  6  1  0  0  0  0
  6  1  2  0  0  0  0
  7  8  1  0  0  0  0
  7  5  1  0  0  0  0
  8 11  1  0  0  0  0
  9  8  2  0  0  0  0
 10  7  1  0  0  0  0
 11 12  1  0  0  0  0
 12 13  2  0  0  0  0
 14 13  1  0  0  0  0
 14 17  1  0  0  0  0
 15 14  2  0  0  0  0
 16 11  2  0  0  0  0
 16 15  1  0  0  0  0
 17 20  1  0  0  0  0
 17 18  1  0  0  0  0
 19 17  1  0  0  0  0
 21 28  1  0  0  0  0
 22 35  1  0  0  0  0
 23 22  2  0  0  0  0
 24 23  1  0  0  0  0
 25 24  2  0  0  0  0
 25 26  1  0  0  0  0
 26 32  1  0  0  0  0
 27 26  2  0  0  0  0
 27 29  1  0  0  0  0
 28 27  1  0  0  0  0
 29 30  2  0  0  0  0
 30 31  1  0  0  0  0
 32 22  1  0  0  0  0
 32 31  2  0  0  0  0
 33 28  1  0  0  0  0
 34 37  1  0  0  0  0
 35 36  2  0  0  0  0
 35 34  1  0  0  0  0
 38 34  1  0  0  0  0
M  END
>  <minimizedAffinity>
-7.72916269

$$$$
