
 OpenBabel10152418273D

 38 41  0  0  0  0  0  0  0  0999 V2000
    1.0100  -11.2080  -24.0770 C   0  0  0  0  0  0  0  0  0  0  0  0
    0.2220  -12.0370  -24.8800 C   0  0  0  0  0  3  0  0  0  0  0  0
   -1.1670  -11.9560  -24.8200 C   0  0  0  0  0  3  0  0  0  0  0  0
   -1.7870  -11.0590  -23.9430 C   0  0  0  0  0  3  0  0  0  0  0  0
   -1.0240  -10.2620  -23.0910 C   0  0  0  0  0  0  0  0  0  0  0  0
    0.3750  -10.3360  -23.1760 C   0  0  0  0  0  3  0  0  0  0  0  0
   -1.5470   -9.3200  -22.1860 N   0  0  0  0  0  0  0  0  0  0  0  0
   -1.5040   -7.9490  -22.1240 C   0  0  0  0  0  0  0  0  0  0  0  0
   -1.8010   -7.3800  -21.0740 O   0  0  0  0  0  0  0  0  0  0  0  0
   -1.9980   -9.7010  -21.3610 H   0  0  0  0  0  0  0  0  0  0  0  0
   -1.1910   -7.1140  -23.2890 C   0  0  0  0  0  0  0  0  0  0  0  0
   -0.3460   -6.0070  -23.2140 C   0  0  0  0  0  3  0  0  0  0  0  0
   -0.0620   -5.2900  -24.3770 C   0  0  0  0  0  3  0  0  0  0  0  0
   -0.6220   -5.7000  -25.5930 C   0  0  0  0  0  0  0  0  0  0  0  0
   -1.4210   -6.8040  -25.6740 N   0  0  0  0  0  0  0  0  0  0  0  0
   -1.6730   -7.4910  -24.5320 C   0  0  0  0  0  3  0  0  0  0  0  0
   -0.2920   -4.9260  -26.8660 C   0  0  0  0  0  0  0  0  0  0  0  0
   -0.7240   -5.5600  -27.9930 F   0  0  0  0  0  0  0  0  0  0  0  0
   -0.8300   -3.6740  -26.9050 F   0  0  0  0  0  0  0  0  0  0  0  0
    1.0520   -4.7480  -27.0420 F   0  0  0  0  0  0  0  0  0  0  0  0
    2.5160  -11.2540  -24.1740 C   0  0  0  0  0  2  0  0  0  0  0  0
    4.2710   -9.0530  -29.5830 C   0  0  0  0  0  0  0  0  0  0  0  0
    4.9510  -10.1740  -30.0820 C   0  0  0  0  0  3  0  0  0  0  0  0
    4.9740  -11.3430  -29.3400 C   0  0  0  0  0  3  0  0  0  0  0  0
    4.3180  -11.3750  -28.1120 C   0  0  0  0  0  3  0  0  0  0  0  0
    3.6190  -10.2430  -27.6090 C   0  0  0  0  0  0  0  0  0  0  0  0
    2.9420  -10.2150  -26.3720 C   0  0  0  0  0  0  0  0  0  0  0  0
    2.9360  -11.3420  -25.5570 N   0  0  0  0  0  0  0  0  0  0  0  0
    2.3320   -9.1070  -25.9210 N   0  0  0  0  0  0  0  0  0  0  0  0
    2.3590   -8.0360  -26.7170 C   0  0  0  0  0  3  0  0  0  0  0  0
    2.9400   -7.9650  -27.9160 N   0  0  0  0  0  0  0  0  0  0  0  0
    3.5950   -9.0520  -28.3560 C   0  0  0  0  0  0  0  0  0  0  0  0
    2.7390  -12.2160  -26.0240 H   0  0  0  0  0  0  0  0  0  0  0  0
    4.7260   -6.6990  -29.7300 N   0  0  0  0  0  0  0  0  0  0  0  0
    4.3240   -7.8240  -30.3930 C   0  0  0  0  0  0  0  0  0  0  0  0
    3.9650   -7.8020  -31.5620 O   0  0  0  0  0  0  0  0  0  0  0  0
    4.7680   -5.8370  -30.2580 H   0  0  0  0  0  0  0  0  0  0  0  0
    5.0410   -6.7020  -28.7710 H   0  0  0  0  0  0  0  0  0  0  0  0
  1  6  1  0  0  0  0
  2  3  1  0  0  0  0
  2  1  2  0  0  0  0
  3  4  2  0  0  0  0
  4  5  1  0  0  0  0
  5  7  1  0  0  0  0
  6  5  2  0  0  0  0
  7  8  1  0  0  0  0
  7 10  1  0  0  0  0
  8  9  2  0  0  0  0
 11 12  1  0  0  0  0
 11  8  1  0  0  0  0
 13 12  2  0  0  0  0
 14 13  1  0  0  0  0
 15 14  2  0  0  0  0
 15 16  1  0  0  0  0
 16 11  2  0  0  0  0
 17 14  1  0  0  0  0
 18 17  1  0  0  0  0
 19 17  1  0  0  0  0
 20 17  1  0  0  0  0
 21  1  1  0  0  0  0
 22 32  1  0  0  0  0
 23 22  2  0  0  0  0
 23 24  1  0  0  0  0
 24 25  2  0  0  0  0
 25 26  1  0  0  0  0
 26 27  1  0  0  0  0
 27 29  2  0  0  0  0
 27 28  1  0  0  0  0
 28 21  1  0  0  0  0
 30 29  1  0  0  0  0
 31 30  2  0  0  0  0
 32 31  1  0  0  0  0
 32 26  2  0  0  0  0
 33 28  1  0  0  0  0
 34 38  1  0  0  0  0
 35 34  1  0  0  0  0
 35 22  1  0  0  0  0
 36 35  2  0  0  0  0
 37 34  1  0  0  0  0
M  END
>  <minimizedAffinity>
-8.3406477

$$$$

 OpenBabel10152418273D

 38 41  0  0  0  0  0  0  0  0999 V2000
    2.2980  -11.5460  -26.6890 C   0  0  0  0  0  0  0  0  0  0  0  0
    3.2450  -12.0390  -25.7870 C   0  0  0  0  0  3  0  0  0  0  0  0
    4.5720  -11.6250  -25.8700 C   0  0  0  0  0  3  0  0  0  0  0  0
    4.9740  -10.7310  -26.8670 C   0  0  0  0  0  3  0  0  0  0  0  0
    4.0600  -10.2690  -27.8140 C   0  0  0  0  0  0  0  0  0  0  0  0
    2.7210  -10.6750  -27.7070 C   0  0  0  0  0  3  0  0  0  0  0  0
    4.3580   -9.3590  -28.8440 N   0  0  0  0  0  0  0  0  0  0  0  0
    3.7300   -8.2320  -29.3160 C   0  0  0  0  0  0  0  0  0  0  0  0
    4.0480   -7.7760  -30.4140 O   0  0  0  0  0  0  0  0  0  0  0  0
    5.1600   -9.5900  -29.4220 H   0  0  0  0  0  0  0  0  0  0  0  0
    2.7390   -7.4900  -28.5280 C   0  0  0  0  0  0  0  0  0  0  0  0
    2.7050   -7.5310  -27.1350 C   0  0  0  0  0  3  0  0  0  0  0  0
    1.7600   -6.7610  -26.4560 C   0  0  0  0  0  3  0  0  0  0  0  0
    0.8740   -5.9590  -27.1850 C   0  0  0  0  0  0  0  0  0  0  0  0
    0.9290   -5.8910  -28.5470 N   0  0  0  0  0  0  0  0  0  0  0  0
    1.8640   -6.6390  -29.1840 C   0  0  0  0  0  3  0  0  0  0  0  0
   -0.1450   -5.1020  -26.4390 C   0  0  0  0  0  0  0  0  0  0  0  0
   -0.0160   -3.7730  -26.7130 F   0  0  0  0  0  0  0  0  0  0  0  0
   -1.4410   -5.4220  -26.7150 F   0  0  0  0  0  0  0  0  0  0  0  0
   -0.0280   -5.2060  -25.0800 F   0  0  0  0  0  0  0  0  0  0  0  0
    0.8470  -11.9500  -26.5730 C   0  0  0  0  0  2  0  0  0  0  0  0
   -1.7540   -9.6270  -21.5700 C   0  0  0  0  0  0  0  0  0  0  0  0
   -2.0390  -10.8160  -20.8820 C   0  0  0  0  0  3  0  0  0  0  0  0
   -1.6410  -12.0280  -21.4210 C   0  0  0  0  0  3  0  0  0  0  0  0
   -0.9640  -12.0340  -22.6380 C   0  0  0  0  0  3  0  0  0  0  0  0
   -0.6650  -10.8290  -23.3320 C   0  0  0  0  0  0  0  0  0  0  0  0
    0.0120  -10.7750  -24.5690 C   0  0  0  0  0  0  0  0  0  0  0  0
    0.4270  -11.9500  -25.1870 N   0  0  0  0  0  0  0  0  0  0  0  0
    0.2340   -9.6140  -25.2060 N   0  0  0  0  0  0  0  0  0  0  0  0
   -0.1800   -8.5020  -24.5970 C   0  0  0  0  0  3  0  0  0  0  0  0
   -0.7990   -8.4380  -23.4170 N   0  0  0  0  0  0  0  0  0  0  0  0
   -1.0690   -9.5970  -22.7920 C   0  0  0  0  0  0  0  0  0  0  0  0
    0.8860  -12.6200  -24.5860 H   0  0  0  0  0  0  0  0  0  0  0  0
   -3.0410   -7.6100  -21.7810 N   0  0  0  0  0  0  0  0  0  0  0  0
   -2.2460   -8.3740  -20.9730 C   0  0  0  0  0  0  0  0  0  0  0  0
   -1.9090   -8.0130  -19.8540 O   0  0  0  0  0  0  0  0  0  0  0  0
   -3.3910   -6.7400  -21.4010 H   0  0  0  0  0  0  0  0  0  0  0  0
   -3.3420   -7.9000  -22.6990 H   0  0  0  0  0  0  0  0  0  0  0  0
  1 21  1  0  0  0  0
  1  2  1  0  0  0  0
  3  2  2  0  0  0  0
  4  3  1  0  0  0  0
  5  6  1  0  0  0  0
  5  4  2  0  0  0  0
  6  1  2  0  0  0  0
  7  5  1  0  0  0  0
  8  7  1  0  0  0  0
  8 11  1  0  0  0  0
  9  8  2  0  0  0  0
 10  7  1  0  0  0  0
 11 12  1  0  0  0  0
 12 13  2  0  0  0  0
 14 13  1  0  0  0  0
 14 17  1  0  0  0  0
 15 14  2  0  0  0  0
 16 15  1  0  0  0  0
 16 11  2  0  0  0  0
 17 20  1  0  0  0  0
 18 17  1  0  0  0  0
 19 17  1  0  0  0  0
 21 28  1  0  0  0  0
 22 35  1  0  0  0  0
 22 23  1  0  0  0  0
 24 23  2  0  0  0  0
 25 24  1  0  0  0  0
 26 32  1  0  0  0  0
 26 25  2  0  0  0  0
 27 26  1  0  0  0  0
 28 33  1  0  0  0  0
 28 27  1  0  0  0  0
 29 30  1  0  0  0  0
 29 27  2  0  0  0  0
 30 31  2  0  0  0  0
 31 32  1  0  0  0  0
 32 22  2  0  0  0  0
 34 37  1  0  0  0  0
 34 35  1  0  0  0  0
 35 36  2  0  0  0  0
 38 34  1  0  0  0  0
M  END
>  <minimizedAffinity>
-8.32642937

$$$$

 OpenBabel10152418273D

 38 41  0  0  0  0  0  0  0  0999 V2000
   -0.4260   -5.3270  -27.1070 C   0  0  0  0  0  0  0  0  0  0  0  0
   -0.2080   -3.9770  -26.8170 C   0  0  0  0  0  3  0  0  0  0  0  0
    0.8550   -3.2980  -27.4050 C   0  0  0  0  0  3  0  0  0  0  0  0
    1.7270   -3.9620  -28.2740 C   0  0  0  0  0  3  0  0  0  0  0  0
    1.5640   -5.3230  -28.5350 C   0  0  0  0  0  0  0  0  0  0  0  0
    0.4760   -5.9920  -27.9550 C   0  0  0  0  0  3  0  0  0  0  0  0
    2.3730   -6.0790  -29.4030 N   0  0  0  0  0  0  0  0  0  0  0  0
    3.1570   -7.1930  -29.2270 C   0  0  0  0  0  0  0  0  0  0  0  0
    3.9880   -7.4900  -30.0850 O   0  0  0  0  0  0  0  0  0  0  0  0
    2.4740   -5.7160  -30.3440 H   0  0  0  0  0  0  0  0  0  0  0  0
    2.9960   -8.1020  -28.0870 C   0  0  0  0  0  0  0  0  0  0  0  0
    2.3410   -7.7270  -26.9150 C   0  0  0  0  0  3  0  0  0  0  0  0
    2.1880   -8.6650  -25.8930 C   0  0  0  0  0  3  0  0  0  0  0  0
    2.6860   -9.9620  -26.0680 C   0  0  0  0  0  0  0  0  0  0  0  0
    3.2960  -10.3410  -27.2290 N   0  0  0  0  0  0  0  0  0  0  0  0
    3.4220   -9.4150  -28.2120 C   0  0  0  0  0  3  0  0  0  0  0  0
    2.4990  -10.9910  -24.9570 C   0  0  0  0  0  0  0  0  0  0  0  0
    1.9530  -10.4540  -23.8290 F   0  0  0  0  0  0  0  0  0  0  0  0
    1.6980  -12.0380  -25.3060 F   0  0  0  0  0  0  0  0  0  0  0  0
    3.6790  -11.5550  -24.5570 F   0  0  0  0  0  0  0  0  0  0  0  0
   -1.6080   -6.0560  -26.5140 C   0  0  0  0  0  2  0  0  0  0  0  0
   -1.2830  -10.8750  -22.7930 C   0  0  0  0  0  0  0  0  0  0  0  0
   -1.1230  -11.8950  -23.7430 C   0  0  0  0  0  3  0  0  0  0  0  0
   -1.0240  -11.5650  -25.0850 C   0  0  0  0  0  3  0  0  0  0  0  0
   -1.0860  -10.2240  -25.4560 C   0  0  0  0  0  3  0  0  0  0  0  0
   -1.2370   -9.1890  -24.4920 C   0  0  0  0  0  0  0  0  0  0  0  0
   -1.3110   -7.8160  -24.8100 C   0  0  0  0  0  0  0  0  0  0  0  0
   -1.2390   -7.4050  -26.1370 N   0  0  0  0  0  0  0  0  0  0  0  0
   -1.4970   -6.8790  -23.8670 N   0  0  0  0  0  0  0  0  0  0  0  0
   -1.5690   -7.2990  -22.6030 C   0  0  0  0  0  3  0  0  0  0  0  0
   -1.4790   -8.5660  -22.1910 N   0  0  0  0  0  0  0  0  0  0  0  0
   -1.3420   -9.5170  -23.1300 C   0  0  0  0  0  0  0  0  0  0  0  0
   -0.5100   -7.8340  -26.6880 H   0  0  0  0  0  0  0  0  0  0  0  0
   -2.4790  -10.7230  -20.7150 N   0  0  0  0  0  0  0  0  0  0  0  0
   -1.4330  -11.2900  -21.3870 C   0  0  0  0  0  0  0  0  0  0  0  0
   -0.6340  -12.0380  -20.8430 O   0  0  0  0  0  0  0  0  0  0  0  0
   -2.6060  -10.9830  -19.7460 H   0  0  0  0  0  0  0  0  0  0  0  0
   -3.1580  -10.1160  -21.1520 H   0  0  0  0  0  0  0  0  0  0  0  0
  1  2  1  0  0  0  0
  1 21  1  0  0  0  0
  3  2  2  0  0  0  0
  4  3  1  0  0  0  0
  5  4  2  0  0  0  0
  5  6  1  0  0  0  0
  6  1  2  0  0  0  0
  7  8  1  0  0  0  0
  7  5  1  0  0  0  0
  8 11  1  0  0  0  0
  9  8  2  0  0  0  0
 10  7  1  0  0  0  0
 11 12  1  0  0  0  0
 12 13  2  0  0  0  0
 14 13  1  0  0  0  0
 14 17  1  0  0  0  0
 15 14  2  0  0  0  0
 16 11  2  0  0  0  0
 16 15  1  0  0  0  0
 17 20  1  0  0  0  0
 17 18  1  0  0  0  0
 19 17  1  0  0  0  0
 21 28  1  0  0  0  0
 22 35  1  0  0  0  0
 23 22  2  0  0  0  0
 24 23  1  0  0  0  0
 25 24  2  0  0  0  0
 25 26  1  0  0  0  0
 26 32  1  0  0  0  0
 27 26  2  0  0  0  0
 27 29  1  0  0  0  0
 28 27  1  0  0  0  0
 29 30  2  0  0  0  0
 30 31  1  0  0  0  0
 32 22  1  0  0  0  0
 32 31  2  0  0  0  0
 33 28  1  0  0  0  0
 34 37  1  0  0  0  0
 35 36  2  0  0  0  0
 35 34  1  0  0  0  0
 38 34  1  0  0  0  0
M  END
>  <minimizedAffinity>
-7.72916269

$$$$

 OpenBabel10152418273D

 38 41  0  0  0  0  0  0  0  0999 V2000
    2.8690   -9.5130  -27.4000 C   0  0  0  0  0  0  0  0  0  0  0  0
    4.2490   -9.4680  -27.1790 C   0  0  0  0  0  3  0  0  0  0  0  0
    4.9740   -8.3280  -27.5130 C   0  0  0  0  0  3  0  0  0  0  0  0
    4.3360   -7.2250  -28.0900 C   0  0  0  0  0  3  0  0  0  0  0  0
    2.9700   -7.2670  -28.3730 C   0  0  0  0  0  0  0  0  0  0  0  0
    2.2450   -8.4130  -28.0110 C   0  0  0  0  0  3  0  0  0  0  0  0
    2.2320   -6.2110  -28.9360 N   0  0  0  0  0  0  0  0  0  0  0  0
    1.1290   -5.5050  -28.5190 C   0  0  0  0  0  0  0  0  0  0  0  0
    0.5080   -4.8180  -29.3300 O   0  0  0  0  0  0  0  0  0  0  0  0
    2.5010   -5.9320  -29.8730 H   0  0  0  0  0  0  0  0  0  0  0  0
    0.6960   -5.4690  -27.1180 C   0  0  0  0  0  0  0  0  0  0  0  0
   -0.3200   -4.6280  -26.6680 C   0  0  0  0  0  3  0  0  0  0  0  0
   -0.7060   -4.6850  -25.3280 C   0  0  0  0  0  3  0  0  0  0  0  0
   -0.0720   -5.5900  -24.4670 C   0  0  0  0  0  0  0  0  0  0  0  0
    0.8990   -6.4390  -24.9140 N   0  0  0  0  0  0  0  0  0  0  0  0
    1.2480   -6.3730  -26.2230 C   0  0  0  0  0  3  0  0  0  0  0  0
   -0.5100   -5.6650  -23.0080 C   0  0  0  0  0  0  0  0  0  0  0  0
   -1.8090   -5.2930  -22.8280 F   0  0  0  0  0  0  0  0  0  0  0  0
   -0.3930   -6.9090  -22.4610 F   0  0  0  0  0  0  0  0  0  0  0  0
    0.2190   -4.8420  -22.1950 F   0  0  0  0  0  0  0  0  0  0  0  0
    2.0680  -10.7260  -26.9920 C   0  0  0  0  0  2  0  0  0  0  0  0
   -1.8770   -9.8610  -22.4240 C   0  0  0  0  0  0  0  0  0  0  0  0
   -2.6930   -8.8780  -23.0020 C   0  0  0  0  0  3  0  0  0  0  0  0
   -2.4550   -8.4770  -24.3070 C   0  0  0  0  0  3  0  0  0  0  0  0
   -1.4070   -9.0630  -25.0120 C   0  0  0  0  0  3  0  0  0  0  0  0
   -0.5860  -10.0680  -24.4300 C   0  0  0  0  0  0  0  0  0  0  0  0
    0.4910  -10.6920  -25.0940 C   0  0  0  0  0  0  0  0  0  0  0  0
    0.8080  -10.3300  -26.3990 N   0  0  0  0  0  0  0  0  0  0  0  0
    1.2650  -11.6060  -24.4860 N   0  0  0  0  0  0  0  0  0  0  0  0
    0.9460  -11.9300  -23.2320 C   0  0  0  0  0  3  0  0  0  0  0  0
   -0.0680  -11.4270  -22.5250 N   0  0  0  0  0  0  0  0  0  0  0  0
   -0.8200  -10.4760  -23.1060 C   0  0  0  0  0  0  0  0  0  0  0  0
    0.0250  -10.2560  -27.0330 H   0  0  0  0  0  0  0  0  0  0  0  0
   -1.4660   -9.4730  -20.0880 N   0  0  0  0  0  0  0  0  0  0  0  0
   -2.1460  -10.2100  -21.0180 C   0  0  0  0  0  0  0  0  0  0  0  0
   -2.8750  -11.1420  -20.7100 O   0  0  0  0  0  0  0  0  0  0  0  0
   -1.6260   -9.6930  -19.1140 H   0  0  0  0  0  0  0  0  0  0  0  0
   -0.8740   -8.6910  -20.3250 H   0  0  0  0  0  0  0  0  0  0  0  0
  1  2  1  0  0  0  0
  1 21  1  0  0  0  0
  3  2  2  0  0  0  0
  4  3  1  0  0  0  0
  5  4  2  0  0  0  0
  5  6  1  0  0  0  0
  6  1  2  0  0  0  0
  7  8  1  0  0  0  0
  7  5  1  0  0  0  0
  8 11  1  0  0  0  0
  9  8  2  0  0  0  0
 10  7  1  0  0  0  0
 11 12  2  0  0  0  0
 11 16  1  0  0  0  0
 12 13  1  0  0  0  0
 13 14  2  0  0  0  0
 14 17  1  0  0  0  0
 15 14  1  0  0  0  0
 16 15  2  0  0  0  0
 17 18  1  0  0  0  0
 17 19  1  0  0  0  0
 17 20  1  0  0  0  0
 21 28  1  0  0  0  0
 22 35  1  0  0  0  0
 23 22  1  0  0  0  0
 24 23  2  0  0  0  0
 25 26  2  0  0  0  0
 25 24  1  0  0  0  0
 26 32  1  0  0  0  0
 27 29  2  0  0  0  0
 27 26  1  0  0  0  0
 28 27  1  0  0  0  0
 29 30  1  0  0  0  0
 30 31  2  0  0  0  0
 32 31  1  0  0  0  0
 32 22  2  0  0  0  0
 33 28  1  0  0  0  0
 34 37  1  0  0  0  0
 35 36  2  0  0  0  0
 35 34  1  0  0  0  0
 38 34  1  0  0  0  0
M  END
>  <minimizedAffinity>
-6.54402542

$$$$
