
 OpenBabel10152418273D

 38 41  0  0  0  0  0  0  0  0999 V2000
    2.2980  -11.5460  -26.6890 C   0  0  0  0  0  0  0  0  0  0  0  0
    3.2450  -12.0390  -25.7870 C   0  0  0  0  0  3  0  0  0  0  0  0
    4.5720  -11.6250  -25.8700 C   0  0  0  0  0  3  0  0  0  0  0  0
    4.9740  -10.7310  -26.8670 C   0  0  0  0  0  3  0  0  0  0  0  0
    4.0600  -10.2690  -27.8140 C   0  0  0  0  0  0  0  0  0  0  0  0
    2.7210  -10.6750  -27.7070 C   0  0  0  0  0  3  0  0  0  0  0  0
    4.3580   -9.3590  -28.8440 N   0  0  0  0  0  0  0  0  0  0  0  0
    3.7300   -8.2320  -29.3160 C   0  0  0  0  0  0  0  0  0  0  0  0
    4.0480   -7.7760  -30.4140 O   0  0  0  0  0  0  0  0  0  0  0  0
    5.1600   -9.5900  -29.4220 H   0  0  0  0  0  0  0  0  0  0  0  0
    2.7390   -7.4900  -28.5280 C   0  0  0  0  0  0  0  0  0  0  0  0
    2.7050   -7.5310  -27.1350 C   0  0  0  0  0  3  0  0  0  0  0  0
    1.7600   -6.7610  -26.4560 C   0  0  0  0  0  3  0  0  0  0  0  0
    0.8740   -5.9590  -27.1850 C   0  0  0  0  0  0  0  0  0  0  0  0
    0.9290   -5.8910  -28.5470 N   0  0  0  0  0  0  0  0  0  0  0  0
    1.8640   -6.6390  -29.1840 C   0  0  0  0  0  3  0  0  0  0  0  0
   -0.1450   -5.1020  -26.4390 C   0  0  0  0  0  0  0  0  0  0  0  0
   -0.0160   -3.7730  -26.7130 F   0  0  0  0  0  0  0  0  0  0  0  0
   -1.4410   -5.4220  -26.7150 F   0  0  0  0  0  0  0  0  0  0  0  0
   -0.0280   -5.2060  -25.0800 F   0  0  0  0  0  0  0  0  0  0  0  0
    0.8470  -11.9500  -26.5730 C   0  0  0  0  0  2  0  0  0  0  0  0
   -1.7540   -9.6270  -21.5700 C   0  0  0  0  0  0  0  0  0  0  0  0
   -2.0390  -10.8160  -20.8820 C   0  0  0  0  0  3  0  0  0  0  0  0
   -1.6410  -12.0280  -21.4210 C   0  0  0  0  0  3  0  0  0  0  0  0
   -0.9640  -12.0340  -22.6380 C   0  0  0  0  0  3  0  0  0  0  0  0
   -0.6650  -10.8290  -23.3320 C   0  0  0  0  0  0  0  0  0  0  0  0
    0.0120  -10.7750  -24.5690 C   0  0  0  0  0  0  0  0  0  0  0  0
    0.4270  -11.9500  -25.1870 N   0  0  0  0  0  0  0  0  0  0  0  0
    0.2340   -9.6140  -25.2060 N   0  0  0  0  0  0  0  0  0  0  0  0
   -0.1800   -8.5020  -24.5970 C   0  0  0  0  0  3  0  0  0  0  0  0
   -0.7990   -8.4380  -23.4170 N   0  0  0  0  0  0  0  0  0  0  0  0
   -1.0690   -9.5970  -22.7920 C   0  0  0  0  0  0  0  0  0  0  0  0
    0.8860  -12.6200  -24.5860 H   0  0  0  0  0  0  0  0  0  0  0  0
   -3.0410   -7.6100  -21.7810 N   0  0  0  0  0  0  0  0  0  0  0  0
   -2.2460   -8.3740  -20.9730 C   0  0  0  0  0  0  0  0  0  0  0  0
   -1.9090   -8.0130  -19.8540 O   0  0  0  0  0  0  0  0  0  0  0  0
   -3.3910   -6.7400  -21.4010 H   0  0  0  0  0  0  0  0  0  0  0  0
   -3.3420   -7.9000  -22.6990 H   0  0  0  0  0  0  0  0  0  0  0  0
  1 21  1  0  0  0  0
  1  2  1  0  0  0  0
  3  2  2  0  0  0  0
  4  3  1  0  0  0  0
  5  6  1  0  0  0  0
  5  4  2  0  0  0  0
  6  1  2  0  0  0  0
  7  5  1  0  0  0  0
  8  7  1  0  0  0  0
  8 11  1  0  0  0  0
  9  8  2  0  0  0  0
 10  7  1  0  0  0  0
 11 12  1  0  0  0  0
 12 13  2  0  0  0  0
 14 13  1  0  0  0  0
 14 17  1  0  0  0  0
 15 14  2  0  0  0  0
 16 15  1  0  0  0  0
 16 11  2  0  0  0  0
 17 20  1  0  0  0  0
 18 17  1  0  0  0  0
 19 17  1  0  0  0  0
 21 28  1  0  0  0  0
 22 35  1  0  0  0  0
 22 23  1  0  0  0  0
 24 23  2  0  0  0  0
 25 24  1  0  0  0  0
 26 32  1  0  0  0  0
 26 25  2  0  0  0  0
 27 26  1  0  0  0  0
 28 33  1  0  0  0  0
 28 27  1  0  0  0  0
 29 30  1  0  0  0  0
 29 27  2  0  0  0  0
 30 31  2  0  0  0  0
 31 32  1  0  0  0  0
 32 22  2  0  0  0  0
 34 37  1  0  0  0  0
 34 35  1  0  0  0  0
 35 36  2  0  0  0  0
 38 34  1  0  0  0  0
M  END
>  <minimizedAffinity>
-8.32642937

$$$$
