
 OpenBabel10152418133D

 34 37  0  0  1  0  0  0  0  0999 V2000
    3.0790  -10.6040  -26.2890 C   0  0  0  0  0  1  0  0  0  0  0  0
    2.0170   -9.5200  -26.0710 C   0  0  2  0  0  3  0  0  0  0  0  0
    0.7190  -10.1680  -25.5890 C   0  0  0  0  0  0  0  0  0  0  0  0
   -0.3370  -10.5150  -26.4360 C   0  0  0  0  0  3  0  0  0  0  0  0
   -1.5930  -10.7950  -25.9070 C   0  0  0  0  0  3  0  0  0  0  0  0
   -1.7680  -10.9160  -24.5300 C   0  0  0  0  0  3  0  0  0  0  0  0
   -0.6710  -10.8840  -23.6860 C   0  0  0  0  0  0  0  0  0  0  0  0
    0.5540  -10.4370  -24.2150 C   0  0  0  0  0  3  0  0  0  0  0  0
   -0.6560  -11.3390  -22.3590 N   0  0  0  0  0  0  0  0  0  0  0  0
   -1.4020  -11.1040  -21.2310 C   0  0  0  0  0  0  0  0  0  0  0  0
   -1.2010  -11.8390  -20.2640 O   0  0  0  0  0  0  0  0  0  0  0  0
   -0.0170  -12.1050  -22.1720 H   0  0  0  0  0  0  0  0  0  0  0  0
   -2.3030   -9.9520  -21.0530 C   0  0  1  0  0  3  0  0  0  0  0  0
   -2.1110   -8.7250  -20.1840 C   0  0  0  0  0  2  0  0  0  0  0  0
   -1.8060   -8.6630  -21.6230 C   0  0  0  0  0  0  0  0  0  0  0  0
   -0.4950   -8.4400  -21.9770 F   0  0  0  0  0  0  0  0  0  0  0  0
   -2.5930   -7.8860  -22.4390 F   0  0  0  0  0  0  0  0  0  0  0  0
    1.9620   -8.6690  -27.2730 N   0  0  0  0  0  0  0  0  0  0  0  0
    1.4200   -9.0680  -28.0350 H   0  0  0  0  0  0  0  0  0  0  0  0
    1.8040   -7.3010  -27.3210 C   0  0  0  0  0  0  0  0  0  0  0  0
    2.2640   -6.7930  -28.4750 N   0  0  0  0  0  0  0  0  0  0  0  0
    1.8750   -5.5570  -28.7760 C   0  0  0  0  0  3  0  0  0  0  0  0
    1.0400   -4.8050  -28.0530 N   0  0  0  0  0  0  0  0  0  0  0  0
    0.6460   -5.2770  -26.8470 C   0  0  0  0  0  0  0  0  0  0  0  0
   -0.2560   -4.5750  -26.0240 C   0  0  0  0  0  0  0  0  0  0  0  0
   -0.5800   -5.0360  -24.7330 C   0  0  0  0  0  3  0  0  0  0  0  0
   -0.0410   -6.2180  -24.2510 C   0  0  0  0  0  3  0  0  0  0  0  0
    0.7780   -6.9700  -25.0800 C   0  0  0  0  0  3  0  0  0  0  0  0
    1.0960   -6.5290  -26.3880 C   0  0  0  0  0  0  0  0  0  0  0  0
   -0.9920   -3.3520  -26.4790 C   0  0  0  0  0  0  0  0  0  0  0  0
   -0.2690   -2.3260  -27.0200 N   0  0  0  0  0  0  0  0  0  0  0  0
   -2.2110   -3.2770  -26.4230 O   0  0  0  0  0  0  0  0  0  0  0  0
   -0.7560   -1.5080  -27.3540 H   0  0  0  0  0  0  0  0  0  0  0  0
    0.7450   -2.3570  -27.0430 H   0  0  0  0  0  0  0  0  0  0  0  0
  2  1  1  6  0  0  0
  2  3  1  0  0  0  0
  3  8  1  0  0  0  0
  4  5  1  0  0  0  0
  4  3  2  0  0  0  0
  5  6  2  0  0  0  0
  6  7  1  0  0  0  0
  7  9  1  0  0  0  0
  8  7  2  0  0  0  0
  9 12  1  0  0  0  0
  9 10  1  0  0  0  0
 10 11  2  0  0  0  0
 13 10  1  1  0  0  0
 13 14  1  0  0  0  0
 15 13  1  0  0  0  0
 15 14  1  0  0  0  0
 16 15  1  0  0  0  0
 17 15  1  0  0  0  0
 18  2  1  0  0  0  0
 19 18  1  0  0  0  0
 20 18  1  0  0  0  0
 20 29  1  0  0  0  0
 21 20  2  0  0  0  0
 22 21  1  0  0  0  0
 22 23  2  0  0  0  0
 23 24  1  0  0  0  0
 24 29  2  0  0  0  0
 24 25  1  0  0  0  0
 25 26  2  0  0  0  0
 26 27  1  0  0  0  0
 28 27  2  0  0  0  0
 29 28  1  0  0  0  0
 30 32  2  0  0  0  0
 30 25  1  0  0  0  0
 31 30  1  0  0  0  0
 33 31  1  0  0  0  0
 34 31  1  0  0  0  0
M  END
>  <minimizedAffinity>
-6.92128849

$$$$
