REMARK  Name = 
REMARK  7 active torsions:
REMARK  status: ('A' for Active; 'I' for Inactive)
REMARK    1  A    between atoms: C_1  and  C_2
REMARK    2  A    between atoms: C_2  and  N_3
REMARK    3  A    between atoms: C_2  and  C_17
REMARK    4  A    between atoms: N_3  and  C_4
REMARK    5  A    between atoms: C_9  and  C_10
REMARK    6  A    between atoms: C_21  and  N_22
REMARK    7  A    between atoms: C_23  and  C_25
REMARK                            x       y       z     vdW  Elec       q    Type
REMARK                         _______ _______ _______ _____ _____    ______ ____
ROOT
ATOM      1  C   UNL     1       1.034   0.086  -0.235  0.00  0.00    +0.033 C 
ATOM      2  C   UNL     1       0.348   1.200   0.564  0.00  0.00    +0.099 C 
ENDROOT
BRANCH   2   3
ATOM      3  C   UNL     1      -1.163   1.128   0.345  0.00  0.00    -0.026 A 
ATOM      4  C   UNL     1      -1.848   1.898  -0.599  0.00  0.00    +0.005 A 
ATOM      5  C   UNL     1      -3.232   2.023  -0.527  0.00  0.00    +0.002 A 
ATOM      6  C   UNL     1      -3.965   1.240   0.362  0.00  0.00    +0.023 A 
ATOM      7  C   UNL     1      -3.337   0.244   1.090  0.00  0.00    +0.034 A 
ATOM      8  C   UNL     1      -1.931   0.245   1.131  0.00  0.00    +0.028 A 
BRANCH   7   9
ATOM      9  N   UNL     1      -3.985  -0.823   1.731  0.00  0.00    -0.285 N 
ATOM     10  C   UNL     1      -5.283  -1.251   1.858  0.00  0.00    +0.226 C 
ATOM     11  O   UNL     1      -5.459  -2.361   2.361  0.00  0.00    -0.275 OA
ATOM     12  H   UNL     1      -3.370  -1.530   2.121  0.00  0.00    +0.155 HD
BRANCH  10  13
ATOM     13  C   UNL     1      -6.466  -0.419   1.579  0.00  0.00    +0.150 C 
ATOM     14  C   UNL     1      -6.950   0.125   0.250  0.00  0.00    +0.095 C 
ATOM     15  C   UNL     1      -7.552  -1.097   0.808  0.00  0.00    +0.261 C 
ATOM     16  F   UNL     1      -7.372  -2.264   0.102  0.00  0.00    -0.205 F 
ATOM     17  F   UNL     1      -8.861  -1.065   1.228  0.00  0.00    -0.205 F 
ENDBRANCH  10  13
ENDBRANCH   7   9
ENDBRANCH   2   3
BRANCH   2  18
ATOM     18  N   UNL     1       1.031   2.474   0.275  0.00  0.00    -0.322 N 
ATOM     19  H   UNL     1       1.787   2.391  -0.399  0.00  0.00    +0.148 HD
BRANCH  18  20
ATOM     20  C   UNL     1       0.451   3.711   0.100  0.00  0.00    +0.130 A 
ATOM     21  N   UNL     1       0.831   4.273  -1.059  0.00  0.00    -0.220 NA
ATOM     22  C   UNL     1       0.098   5.296  -1.490  0.00  0.00    +0.223 A 
ATOM     23  N   UNL     1      -0.996   5.778  -0.893  0.00  0.00    -0.235 NA
ATOM     24  C   UNL     1      -1.329   5.275   0.318  0.00  0.00    +0.088 A 
ATOM     25  C   UNL     1      -2.480   5.693   1.014  0.00  0.00    +0.063 A 
ATOM     26  C   UNL     1      -2.759   5.229   2.314  0.00  0.00    +0.015 A 
ATOM     27  C   UNL     1      -1.919   4.316   2.932  0.00  0.00    +0.002 A 
ATOM     28  C   UNL     1      -0.830   3.823   2.228  0.00  0.00    +0.013 A 
ATOM     29  C   UNL     1      -0.549   4.266   0.913  0.00  0.00    +0.041 A 
BRANCH  25  30
ATOM     30  C   UNL     1      -3.521   6.583   0.407  0.00  0.00    +0.244 C 
ATOM     31  N   UNL     1      -3.411   6.897  -0.918  0.00  0.00    -0.325 N 
ATOM     32  O   UNL     1      -4.479   6.985   1.052  0.00  0.00    -0.270 OA
ATOM     33  H   UNL     1      -4.121   7.474  -1.345  0.00  0.00    +0.145 HD
ATOM     34  H   UNL     1      -2.606   6.601  -1.460  0.00  0.00    +0.145 HD
ENDBRANCH  25  30
ENDBRANCH  18  20
ENDBRANCH   2  18
TORSDOF 6
