REMARK  Name = 
REMARK  6 active torsions:
REMARK  status: ('A' for Active; 'I' for Inactive)
REMARK    1  A    between atoms: C_2  and  C_4
REMARK    2  A    between atoms: N_10  and  C_11
REMARK    3  A    between atoms: C_11  and  C_12
REMARK    4  A    between atoms: C_16  and  N_17
REMARK    5  A    between atoms: C_18  and  C_20
REMARK    6  A    between atoms: C_23  and  C_24
REMARK                            x       y       z     vdW  Elec       q    Type
REMARK                         _______ _______ _______ _____ _____    ______ ____
ROOT
ATOM      1  C   UNL     1       1.861   3.926   8.460  0.00  0.00    -0.029 A 
ATOM      2  C   UNL     1       1.651   2.604   8.863  0.00  0.00    +0.005 A 
ATOM      3  C   UNL     1       2.372   2.075   9.932  0.00  0.00    +0.002 A 
ATOM      4  C   UNL     1       3.321   2.855  10.600  0.00  0.00    +0.023 A 
ATOM      5  C   UNL     1       3.579   4.163  10.189  0.00  0.00    +0.034 A 
ATOM      6  C   UNL     1       2.834   4.692   9.125  0.00  0.00    +0.028 A 
ENDROOT
BRANCH   5   7
ATOM      7  N   UNL     1       4.497   5.034  10.804  0.00  0.00    -0.281 N 
ATOM      8  C   UNL     1       5.487   4.849  11.738  0.00  0.00    +0.251 C 
ATOM      9  O   UNL     1       5.983   5.824  12.305  0.00  0.00    -0.270 OA
ATOM     10  H   UNL     1       4.417   6.014  10.557  0.00  0.00    +0.155 HD
BRANCH   8  11
ATOM     11  C   UNL     1       6.026   3.526  12.068  0.00  0.00    +0.072 A 
ATOM     12  C   UNL     1       6.028   3.111  13.404  0.00  0.00    +0.016 A 
ATOM     13  C   UNL     1       6.579   1.873  13.744  0.00  0.00    +0.013 A 
ATOM     14  C   UNL     1       7.145   1.046  12.757  0.00  0.00    +0.058 A 
ATOM     15  C   UNL     1       7.169   1.495  11.426  0.00  0.00    +0.051 A 
ATOM     16  C   UNL     1       6.618   2.731  11.091  0.00  0.00    +0.136 A 
ATOM     17  F   UNL     1       6.682   3.137   9.815  0.00  0.00    -0.205 F 
BRANCH  14  18
ATOM     18  C   UNL     1       7.762  -0.280  13.134  0.00  0.00    +0.418 C 
ATOM     19  F   UNL     1       9.038  -0.145  13.587  0.00  0.00    -0.166 F 
ATOM     20  F   UNL     1       7.076  -0.918  14.122  0.00  0.00    -0.166 F 
ATOM     21  F   UNL     1       7.821  -1.157  12.095  0.00  0.00    -0.166 F 
ENDBRANCH  14  18
ENDBRANCH   8  11
ENDBRANCH   5   7
BRANCH   1  22
ATOM     22  C   UNL     1       1.064   4.513   7.319  0.00  0.00    +0.138 C 
BRANCH  22  29
ATOM     23  C   UNL     1       1.226   1.981   1.767  0.00  0.00    +0.063 A 
ATOM     24  C   UNL     1       2.303   2.690   1.215  0.00  0.00    +0.015 A 
ATOM     25  C   UNL     1       2.984   3.609   1.996  0.00  0.00    +0.002 A 
ATOM     26  C   UNL     1       2.581   3.806   3.314  0.00  0.00    +0.013 A 
ATOM     27  C   UNL     1       1.496   3.079   3.878  0.00  0.00    +0.041 A 
ATOM     28  C   UNL     1       1.041   3.236   5.204  0.00  0.00    +0.130 A 
ATOM     29  N   UNL     1       1.662   4.151   6.050  0.00  0.00    -0.324 N 
ATOM     30  N   UNL     1      -0.015   2.556   5.677  0.00  0.00    -0.220 NA
ATOM     31  C   UNL     1      -0.597   1.690   4.846  0.00  0.00    +0.223 A 
ATOM     32  N   UNL     1      -0.230   1.440   3.588  0.00  0.00    -0.235 NA
ATOM     33  C   UNL     1       0.797   2.148   3.089  0.00  0.00    +0.088 A 
ATOM     34  H   UNL     1       2.673   4.144   6.031  0.00  0.00    +0.148 HD
BRANCH  23  36
ATOM     35  N   UNL     1       1.185  -0.096   0.561  0.00  0.00    -0.325 N 
ATOM     36  C   UNL     1       0.511   1.051   0.875  0.00  0.00    +0.244 C 
ATOM     37  O   UNL     1      -0.580   1.322   0.395  0.00  0.00    -0.270 OA
ATOM     38  H   UNL     1       0.724  -0.754  -0.054  0.00  0.00    +0.145 HD
ATOM     39  H   UNL     1       2.079  -0.341   0.960  0.00  0.00    +0.145 HD
ENDBRANCH  23  36
ENDBRANCH  22  29
ENDBRANCH   1  22
TORSDOF 6
