
 OpenBabel10152418163D

 32 35  0  0  1  0  0  0  0  0999 V2000
    0.5290   -5.9000  -27.2970 C   0  0  2  0  0  0  0  0  0  0  0  0
   -0.8710   -6.5430  -27.3640 C   0  0  0  0  0  2  0  0  0  0  0  0
   -1.7280   -6.4130  -26.1010 C   0  0  0  0  0  2  0  0  0  0  0  0
   -0.9960   -6.7080  -24.7890 C   0  0  2  0  0  3  0  0  0  0  0  0
    0.3840   -6.0520  -24.7140 C   0  0  0  0  0  2  0  0  0  0  0  0
    1.2440   -6.2270  -25.9650 C   0  0  0  0  0  2  0  0  0  0  0  0
   -0.4560   -3.7650  -26.8340 O   0  0  0  0  0  1  0  0  0  0  0  0
    0.5270   -4.3480  -27.3800 C   0  0  0  0  0  0  0  0  0  0  0  0
    1.5030   -3.8210  -27.9800 O   0  0  0  0  0  0  0  0  0  0  0  0
    1.4190   -6.4460  -28.4560 C   0  0  0  0  0  2  0  0  0  0  0  0
    2.6240   -7.2770  -28.0660 C   0  0  0  0  0  0  0  0  0  0  0  0
    3.9000   -6.9130  -28.4780 C   0  0  0  0  0  3  0  0  0  0  0  0
    4.9730   -7.7070  -28.1090 C   0  0  0  0  0  3  0  0  0  0  0  0
    4.7450   -8.8220  -27.3120 C   0  0  0  0  0  3  0  0  0  0  0  0
    3.4490   -9.1140  -26.8810 C   0  0  0  0  0  0  0  0  0  0  0  0
    2.3990   -8.3600  -27.2670 N   0  0  0  0  0  0  0  0  0  0  0  0
    3.3020  -10.1850  -25.9740 N   0  0  0  0  0  0  0  0  0  0  0  0
    2.1560  -10.8330  -25.6800 C   0  0  0  0  0  0  0  0  0  0  0  0
    1.1890  -11.1910  -26.4980 N   0  0  0  0  0  0  0  0  0  0  0  0
    0.1990  -11.8670  -25.8160 C   0  0  0  0  0  3  0  0  0  0  0  0
    0.4120  -12.0380  -24.4690 C   0  0  0  0  0  3  0  0  0  0  0  0
    1.9270  -11.3740  -24.0440 S   0  0  0  0  0  0  0  0  0  0  0  0
    3.9980  -10.1440  -25.2460 H   0  0  0  0  0  0  0  0  0  0  0  0
   -1.0410   -8.0790  -24.3230 O   0  0  0  0  0  0  0  0  0  0  0  0
   -1.4030   -8.2800  -23.0240 C   0  0  0  0  0  0  0  0  0  0  0  0
   -1.4420   -7.1920  -22.1530 C   0  0  0  0  0  3  0  0  0  0  0  0
   -1.8470   -7.3720  -20.8300 C   0  0  0  0  0  3  0  0  0  0  0  0
   -2.1620   -8.6470  -20.3630 C   0  0  0  0  0  3  0  0  0  0  0  0
   -2.0300   -9.7470  -21.2120 C   0  0  0  0  0  0  0  0  0  0  0  0
   -2.3830  -11.3220  -20.6080 Cl  0  0  0  0  0  0  0  0  0  0  0  0
   -1.6250   -9.5640  -22.5330 C   0  0  0  0  0  0  0  0  0  0  0  0
   -1.4750  -10.6250  -23.3430 F   0  0  0  0  0  0  0  0  0  0  0  0
  1 10  1  6  0  0  0
  1  6  1  0  0  0  0
  2  1  1  0  0  0  0
  2  3  1  0  0  0  0
  3  4  1  0  0  0  0
  4  5  1  0  0  0  0
  4 24  1  6  0  0  0
  6  5  1  0  0  0  0
  8  1  1  0  0  0  0
  8  7  1  0  0  0  0
  9  8  2  0  0  0  0
 10 11  1  0  0  0  0
 11 16  1  0  0  0  0
 12 13  1  0  0  0  0
 12 11  2  0  0  0  0
 13 14  2  0  0  0  0
 14 15  1  0  0  0  0
 15 17  1  0  0  0  0
 16 15  2  0  0  0  0
 17 18  1  0  0  0  0
 17 23  1  0  0  0  0
 18 22  1  0  0  0  0
 19 20  1  0  0  0  0
 19 18  2  0  0  0  0
 20 21  2  0  0  0  0
 21 22  1  0  0  0  0
 24 25  1  0  0  0  0
 25 31  2  0  0  0  0
 25 26  1  0  0  0  0
 26 27  2  0  0  0  0
 27 28  1  0  0  0  0
 29 30  1  0  0  0  0
 29 28  2  0  0  0  0
 31 29  1  0  0  0  0
 32 31  1  0  0  0  0
M  END
>  <minimizedAffinity>
-7.47630596

$$$$
