
 OpenBabel10152418163D

 32 35  0  0  1  0  0  0  0  0999 V2000
    0.1000  -10.2850  -26.1520 C   0  0  2  0  0  0  0  0  0  0  0  0
    0.8830  -11.0080  -27.2650 C   0  0  0  0  0  2  0  0  0  0  0  0
    1.9150  -12.0390  -26.7960 C   0  0  0  0  0  2  0  0  0  0  0  0
    2.8060  -11.5810  -25.6390 C   0  0  2  0  0  3  0  0  0  0  0  0
    2.0260  -10.8820  -24.5240 C   0  0  0  0  0  2  0  0  0  0  0  0
    1.0320   -9.8270  -25.0050 C   0  0  0  0  0  2  0  0  0  0  0  0
   -0.5620  -12.0380  -24.6590 O   0  0  0  0  0  1  0  0  0  0  0  0
   -0.9870  -11.1560  -25.4610 C   0  0  0  0  0  0  0  0  0  0  0  0
   -2.1840  -10.8980  -25.7650 O   0  0  0  0  0  0  0  0  0  0  0  0
   -0.5940   -9.0130  -26.7310 C   0  0  0  0  0  2  0  0  0  0  0  0
   -0.5450   -7.7570  -25.8870 C   0  0  0  0  0  0  0  0  0  0  0  0
   -0.3650   -6.5130  -26.4770 C   0  0  0  0  0  3  0  0  0  0  0  0
   -0.3130   -5.3890  -25.6670 C   0  0  0  0  0  3  0  0  0  0  0  0
   -0.4760   -5.5390  -24.2960 C   0  0  0  0  0  3  0  0  0  0  0  0
   -0.7080   -6.8070  -23.7580 C   0  0  0  0  0  0  0  0  0  0  0  0
   -0.7250   -7.9050  -24.5420 N   0  0  0  0  0  0  0  0  0  0  0  0
   -0.9890   -6.8750  -22.3780 N   0  0  0  0  0  0  0  0  0  0  0  0
   -1.3670   -7.9730  -21.6900 C   0  0  0  0  0  0  0  0  0  0  0  0
   -0.9260   -9.2070  -21.8180 N   0  0  0  0  0  0  0  0  0  0  0  0
   -1.5400  -10.0400  -20.9070 C   0  0  0  0  0  3  0  0  0  0  0  0
   -2.4500   -9.4410  -20.0680 C   0  0  0  0  0  3  0  0  0  0  0  0
   -2.5070   -7.7660  -20.3940 S   0  0  0  0  0  0  0  0  0  0  0  0
   -1.3160   -5.9880  -22.0280 H   0  0  0  0  0  0  0  0  0  0  0  0
    4.0510  -10.9360  -26.0040 O   0  0  0  0  0  0  0  0  0  0  0  0
    4.0860  -10.2930  -27.2050 C   0  0  0  0  0  0  0  0  0  0  0  0
    4.6350  -10.9440  -28.3100 C   0  0  0  0  0  3  0  0  0  0  0  0
    4.6450  -10.3150  -29.5550 C   0  0  0  0  0  3  0  0  0  0  0  0
    4.1540   -9.0170  -29.6870 C   0  0  0  0  0  3  0  0  0  0  0  0
    3.6930   -8.3340  -28.5610 C   0  0  0  0  0  0  0  0  0  0  0  0
    3.1280   -6.7150  -28.7320 Cl  0  0  0  0  0  0  0  0  0  0  0  0
    3.6850   -8.9630  -27.3180 C   0  0  0  0  0  0  0  0  0  0  0  0
    3.2640   -8.2980  -26.2290 F   0  0  0  0  0  0  0  0  0  0  0  0
  1 10  1  6  0  0  0
  1  8  1  0  0  0  0
  1  6  1  0  0  0  0
  2  3  1  0  0  0  0
  2  1  1  0  0  0  0
  3  4  1  0  0  0  0
  4 24  1  6  0  0  0
  4  5  1  0  0  0  0
  6  5  1  0  0  0  0
  8  7  1  0  0  0  0
  9  8  2  0  0  0  0
 10 11  1  0  0  0  0
 11 16  1  0  0  0  0
 12 11  2  0  0  0  0
 12 13  1  0  0  0  0
 13 14  2  0  0  0  0
 14 15  1  0  0  0  0
 15 17  1  0  0  0  0
 16 15  2  0  0  0  0
 17 23  1  0  0  0  0
 17 18  1  0  0  0  0
 18 22  1  0  0  0  0
 19 18  2  0  0  0  0
 19 20  1  0  0  0  0
 20 21  2  0  0  0  0
 22 21  1  0  0  0  0
 25 24  1  0  0  0  0
 26 25  2  0  0  0  0
 27 26  1  0  0  0  0
 28 27  2  0  0  0  0
 28 29  1  0  0  0  0
 29 31  2  0  0  0  0
 30 29  1  0  0  0  0
 31 25  1  0  0  0  0
 31 32  1  0  0  0  0
M  END
>  <minimizedAffinity>
-6.07088327

$$$$
