REMARK  Name = 
REMARK  6 active torsions:
REMARK  status: ('A' for Active; 'I' for Inactive)
REMARK    1  A    between atoms: C_2  and  C_4
REMARK    2  A    between atoms: C_4  and  C_5
REMARK    3  A    between atoms: C_5  and  C_6
REMARK    4  A    between atoms: C_10  and  N_11
REMARK    5  A    between atoms: C_20  and  O_21
REMARK    6  A    between atoms: O_21  and  C_22
REMARK                            x       y       z     vdW  Elec       q    Type
REMARK                         _______ _______ _______ _____ _____    ______ ____
ROOT
ATOM      1  C   UNL     1       3.387   1.196   0.329  0.00  0.00    +0.016 C 
ATOM      2  C   UNL     1       2.532   2.403  -0.105  0.00  0.00    +0.017 C 
ATOM      3  C   UNL     1       2.757   3.699   0.680  0.00  0.00    +0.045 C 
ATOM      4  C   UNL     1       2.826   3.531   2.200  0.00  0.00    +0.174 C 
ATOM      5  C   UNL     1       3.692   2.346   2.632  0.00  0.00    +0.045 C 
ATOM      6  C   UNL     1       3.426   1.049   1.869  0.00  0.00    +0.017 C 
ENDROOT
BRANCH   1   8
ATOM      7  O   UNL     1       5.550   0.211   0.026  0.00  0.00    -0.549 OA
ATOM      8  C   UNL     1       4.878   1.276  -0.103  0.00  0.00    +0.048 C 
ATOM      9  O   UNL     1       5.272   2.392  -0.540  0.00  0.00    -0.549 OA
ENDBRANCH   1   8
BRANCH   1  10
ATOM     10  C   UNL     1       2.783  -0.119  -0.254  0.00  0.00    +0.068 C 
BRANCH  10  11
ATOM     11  C   UNL     1       2.499  -0.146  -1.742  0.00  0.00    +0.044 A 
ATOM     12  C   UNL     1       3.539  -0.148  -2.662  0.00  0.00    +0.023 A 
ATOM     13  C   UNL     1       3.236  -0.161  -4.014  0.00  0.00    +0.005 A 
ATOM     14  C   UNL     1       1.904  -0.205  -4.406  0.00  0.00    +0.044 A 
ATOM     15  C   UNL     1       0.897  -0.255  -3.439  0.00  0.00    +0.125 A 
ATOM     16  N   UNL     1       1.190  -0.209  -2.123  0.00  0.00    -0.237 NA
BRANCH  15  17
ATOM     17  N   UNL     1      -0.425  -0.424  -3.901  0.00  0.00    -0.279 N 
ATOM     18  C   UNL     1      -1.552  -0.286  -3.171  0.00  0.00    +0.163 A 
ATOM     19  N   UNL     1      -1.824   0.619  -2.255  0.00  0.00    -0.233 NA
ATOM     20  C   UNL     1      -3.099   0.443  -1.760  0.00  0.00    +0.120 A 
ATOM     21  C   UNL     1      -3.814  -0.596  -2.307  0.00  0.00    +0.068 A 
ATOM     22  S   UNL     1      -2.879  -1.353  -3.519  0.00  0.00    -0.061 S 
ATOM     23  H   UNL     1      -0.462  -1.073  -4.671  0.00  0.00    +0.155 HD
ENDBRANCH  15  17
ENDBRANCH  10  11
ENDBRANCH   1  10
BRANCH   4  24
ATOM     24  O   UNL     1       1.574   3.660   2.918  0.00  0.00    -0.486 OA
BRANCH  24  25
ATOM     25  C   UNL     1       0.581   2.784   2.593  0.00  0.00    +0.157 A 
ATOM     26  C   UNL     1      -0.330   3.128   1.595  0.00  0.00    +0.049 A 
ATOM     27  C   UNL     1      -1.329   2.228   1.223  0.00  0.00    +0.005 A 
ATOM     28  C   UNL     1      -1.451   1.006   1.884  0.00  0.00    +0.023 A 
ATOM     29  C   UNL     1      -0.597   0.706   2.946  0.00  0.00    +0.080 A 
ATOM     30 CL   UNL     1      -0.786  -0.790   3.780  0.00  0.00    -0.080 Cl
ATOM     31  C   UNL     1       0.400   1.607   3.316  0.00  0.00    +0.183 A 
ATOM     32  F   UNL     1       1.207   1.329   4.353  0.00  0.00    -0.200 F 
ENDBRANCH  24  25
ENDBRANCH   4  24
TORSDOF 6
