REMARK  Name = 
REMARK  6 active torsions:
REMARK  status: ('A' for Active; 'I' for Inactive)
REMARK    1  A    between atoms: C_3  and  C_5
REMARK    2  A    between atoms: C_5  and  C_6
REMARK    3  A    between atoms: C_6  and  C_7
REMARK    4  A    between atoms: C_11  and  N_12
REMARK    5  A    between atoms: C_21  and  O_22
REMARK    6  A    between atoms: O_22  and  C_23
REMARK                            x       y       z     vdW  Elec       q    Type
REMARK                         _______ _______ _______ _____ _____    ______ ____
ROOT
ATOM      1 CL   UNL     1       1.084   0.043  -0.033  0.00  0.00    -0.145 Cl
ATOM      2  H   UNL     1       2.414   0.043  -0.033  0.00  0.00    +0.145 HD
ENDROOT
TORSDOF 0
REMARK  Name = 
REMARK  6 active torsions:
REMARK  status: ('A' for Active; 'I' for Inactive)
REMARK    1  A    between atoms: C_3  and  C_5
REMARK    2  A    between atoms: C_5  and  C_6
REMARK    3  A    between atoms: C_6  and  C_7
REMARK    4  A    between atoms: C_11  and  N_12
REMARK    5  A    between atoms: C_21  and  O_22
REMARK    6  A    between atoms: O_22  and  C_23
REMARK                            x       y       z     vdW  Elec       q    Type
REMARK                         _______ _______ _______ _____ _____    ______ ____
ROOT
ATOM      1  C   UNL     1       3.072  -0.079  -1.289  0.00  0.00    +0.016 C 
ATOM      2  C   UNL     1       4.150   1.007  -1.402  0.00  0.00    +0.017 C 
ATOM      3  C   UNL     1       5.011   0.820  -2.646  0.00  0.00    +0.045 C 
ATOM      4  C   UNL     1       5.647  -0.561  -2.674  0.00  0.00    +0.174 C 
ATOM      5  C   UNL     1       4.570  -1.633  -2.577  0.00  0.00    +0.045 C 
ATOM      6  C   UNL     1       3.720  -1.460  -1.327  0.00  0.00    +0.017 C 
ENDROOT
BRANCH   1   8
ATOM      7  O   UNL     1       2.541  -0.020  -3.650  0.00  0.00    -0.549 OA
ATOM      8  C   UNL     1       2.109   0.055  -2.457  0.00  0.00    +0.048 C 
ATOM      9  O   UNL     1       0.725   0.263  -2.214  0.00  0.00    -0.549 OA
ENDBRANCH   1   8
BRANCH   1  10
ATOM     10  C   UNL     1       2.312   0.089   0.017  0.00  0.00    +0.068 C 
BRANCH  10  11
ATOM     11  C   UNL     1       1.654   1.459   0.045  0.00  0.00    +0.044 A 
ATOM     12  C   UNL     1       0.739   1.773  -0.940  0.00  0.00    +0.023 A 
ATOM     13  C   UNL     1       0.140   3.036  -0.944  0.00  0.00    +0.005 A 
ATOM     14  C   UNL     1       0.488   3.917   0.071  0.00  0.00    +0.044 A 
ATOM     15  C   UNL     1       1.391   3.514   1.028  0.00  0.00    +0.125 A 
ATOM     16  N   UNL     1       1.984   2.316   1.025  0.00  0.00    -0.237 NA
BRANCH  15  17
ATOM     17  N   UNL     1       1.722   4.451   2.112  0.00  0.00    -0.279 N 
ATOM     18  C   UNL     1       2.682   4.059   3.154  0.00  0.00    +0.163 A 
ATOM     19  N   UNL     1       3.915   3.737   2.890  0.00  0.00    -0.233 NA
ATOM     20  C   UNL     1       4.638   3.432   4.031  0.00  0.00    +0.120 A 
ATOM     21  C   UNL     1       3.901   3.506   5.184  0.00  0.00    +0.068 A 
ATOM     22  S   UNL     1       2.264   3.994   4.832  0.00  0.00    -0.061 S 
ATOM     23  H   UNL     1       1.286   5.372   2.140  0.00  0.00    +0.155 HD
ENDBRANCH  15  17
ENDBRANCH  10  11
ENDBRANCH   1  10
BRANCH   4  24
ATOM     24  O   UNL     1       6.532  -0.689  -1.571  0.00  0.00    -0.486 OA
BRANCH  24  25
ATOM     25  C   UNL     1       6.038  -0.563  -0.246  0.00  0.00    +0.159 A 
ATOM     26  C   UNL     1       5.058  -1.415   0.254  0.00  0.00    +0.049 A 
ATOM     27  C   UNL     1       4.544  -1.255   1.521  0.00  0.00    +0.007 A 
ATOM     28  C   UNL     1       4.986  -0.251   2.367  0.00  0.00    +0.041 A 
ATOM     29  C   UNL     1       5.988   0.570   1.882  0.00  0.00    +0.162 A 
ATOM     30  F   UNL     1       6.494   1.546   2.642  0.00  0.00    -0.202 F 
ATOM     31  C   UNL     1       6.486   0.403   0.598  0.00  0.00    +0.200 A 
ATOM     32  F   UNL     1       7.479   1.240   0.210  0.00  0.00    -0.199 F 
ENDBRANCH  24  25
ENDBRANCH   4  24
TORSDOF 6
