
 OpenBabel10152418473D

 39 42  0  0  1  0  0  0  0  0999 V2000
    8.0660   -9.8440   13.3530 C   0  0  0  0  0  0  0  0  0  0  0  0
    8.9260   -8.7770   13.6430 C   0  0  0  0  0  3  0  0  0  0  0  0
   10.2790   -9.0150   13.8390 C   0  0  0  0  0  3  0  0  0  0  0  0
   10.7690  -10.3230   13.8150 C   0  0  0  0  0  3  0  0  0  0  0  0
    9.9100  -11.4160   13.7320 C   0  0  0  0  0  0  0  0  0  0  0  0
    8.5540  -11.1600   13.4840 C   0  0  0  0  0  3  0  0  0  0  0  0
   10.3000  -12.7720   13.7830 N   0  0  0  0  0  0  0  0  0  0  0  0
    9.6680  -13.9650   13.5100 C   0  0  0  0  0  0  0  0  0  0  0  0
   10.2040  -14.9930   13.9240 O   0  0  0  0  0  0  0  0  0  0  0  0
   11.2250  -12.9520   14.1530 H   0  0  0  0  0  0  0  0  0  0  0  0
    8.4270  -14.0120   12.7970 C   0  0  1  0  0  3  0  0  0  0  0  0
    7.2830  -13.2400   12.8450 C   0  0  0  0  0  2  0  0  0  0  0  0
    6.3080  -13.9880   12.1380 C   0  0  1  0  0  3  0  0  0  0  0  0
    6.8800  -14.9960   11.4650 N   0  0  0  0  0  2  0  0  0  0  0  0
    8.1720  -14.9430   11.8280 N   0  0  0  0  0  0  0  0  0  0  0  0
    8.8140  -15.6380   11.4580 H   0  0  0  0  0  0  0  0  0  0  0  0
    4.7950  -13.8530   12.1750 C   0  0  0  0  0  0  0  0  0  0  0  0
    4.2920  -13.7230   13.6230 C   0  0  0  0  0  1  0  0  0  0  0  0
    4.3760  -12.5950   11.3790 C   0  0  0  0  0  1  0  0  0  0  0  0
    4.0970  -15.0660   11.5240 C   0  0  0  0  0  1  0  0  0  0  0  0
    5.7370   -9.0460   13.8400 C   0  0  0  0  0  1  0  0  0  0  0  0
    6.6780   -9.6070   12.7680 C   0  0  1  0  0  3  0  0  0  0  0  0
    6.6400   -8.7310   11.5760 N   0  0  0  0  0  0  0  0  0  0  0  0
    7.2820   -7.9450   11.6470 H   0  0  0  0  0  0  0  0  0  0  0  0
    6.7120   -9.1910   10.2710 C   0  0  0  0  0  0  0  0  0  0  0  0
    7.9470   -9.0770    9.7560 N   0  0  0  0  0  0  0  0  0  0  0  0
    8.1640   -9.7040    8.6030 C   0  0  0  0  0  3  0  0  0  0  0  0
    7.2780  -10.4480    7.9300 N   0  0  0  0  0  0  0  0  0  0  0  0
    6.0130  -10.5090    8.4050 C   0  0  0  0  0  0  0  0  0  0  0  0
    5.0060  -11.2700    7.7750 C   0  0  0  0  0  0  0  0  0  0  0  0
    3.6790  -11.2680    8.2490 C   0  0  0  0  0  3  0  0  0  0  0  0
    3.3270  -10.5080    9.3530 C   0  0  0  0  0  3  0  0  0  0  0  0
    4.3120   -9.7870   10.0130 C   0  0  0  0  0  3  0  0  0  0  0  0
    5.6590   -9.8150    9.5780 C   0  0  0  0  0  0  0  0  0  0  0  0
    5.2630  -12.1480    6.5900 C   0  0  0  0  0  0  0  0  0  0  0  0
    4.2250  -12.8620    6.0690 N   0  0  0  0  0  0  0  0  0  0  0  0
    6.3750  -12.2250    6.0760 O   0  0  0  0  0  0  0  0  0  0  0  0
    4.3880  -13.4490    5.2640 H   0  0  0  0  0  0  0  0  0  0  0  0
    3.3030  -12.8240    6.4930 H   0  0  0  0  0  0  0  0  0  0  0  0
  1  6  2  0  0  0  0
  1  2  1  0  0  0  0
  2  3  2  0  0  0  0
  4  3  1  0  0  0  0
  5  7  1  0  0  0  0
  5  4  2  0  0  0  0
  6  5  1  0  0  0  0
  7 10  1  0  0  0  0
  8  7  1  0  0  0  0
  8  9  2  0  0  0  0
 11 12  1  0  0  0  0
 11  8  1  6  0  0  0
 13 17  1  1  0  0  0
 13 12  1  0  0  0  0
 14 15  1  0  0  0  0
 14 13  1  0  0  0  0
 15 11  1  0  0  0  0
 16 15  1  0  0  0  0
 17 18  1  0  0  0  0
 19 17  1  0  0  0  0
 20 17  1  0  0  0  0
 22  1  1  0  0  0  0
 22 21  1  1  0  0  0
 23 24  1  0  0  0  0
 23 22  1  0  0  0  0
 25 23  1  0  0  0  0
 26 25  1  0  0  0  0
 27 26  2  0  0  0  0
 28 29  2  0  0  0  0
 28 27  1  0  0  0  0
 29 34  1  0  0  0  0
 30 31  2  0  0  0  0
 30 29  1  0  0  0  0
 31 32  1  0  0  0  0
 32 33  2  0  0  0  0
 34 33  1  0  0  0  0
 34 25  2  0  0  0  0
 35 30  1  0  0  0  0
 36 39  1  0  0  0  0
 36 35  1  0  0  0  0
 37 35  2  0  0  0  0
 38 36  1  0  0  0  0
M  END
>  <minimizedAffinity>
38.9482384

$$$$
