
 OpenBabel10152420033D

 38 42  0  0  0  0  0  0  0  0999 V2000
   -0.2330   -6.1260  -25.5140 C   0  0  0  0  0  0  0  0  0  0  0  0
   -1.3250   -5.8960  -26.3580 C   0  0  0  0  0  3  0  0  0  0  0  0
   -1.1320   -5.7860  -27.7300 C   0  0  0  0  0  3  0  0  0  0  0  0
    0.1530   -5.8830  -28.2730 C   0  0  0  0  0  3  0  0  0  0  0  0
    1.2680   -6.0580  -27.4540 C   0  0  0  0  0  0  0  0  0  0  0  0
    1.0560   -6.1970  -26.0720 C   0  0  0  0  0  3  0  0  0  0  0  0
    2.6080   -6.1250  -27.8840 N   0  0  0  0  0  0  0  0  0  0  0  0
    3.5990   -7.0730  -27.8050 C   0  0  0  0  0  0  0  0  0  0  0  0
    4.7220   -6.8250  -28.2400 O   0  0  0  0  0  0  0  0  0  0  0  0
    2.9610   -5.2970  -28.3520 H   0  0  0  0  0  0  0  0  0  0  0  0
    3.3730   -8.3900  -27.1990 C   0  0  0  0  0  0  0  0  0  0  0  0
    2.7290   -8.4460  -25.9620 C   0  0  0  0  0  3  0  0  0  0  0  0
    2.4460   -9.6840  -25.3760 C   0  0  0  0  0  3  0  0  0  0  0  0
    2.8200  -10.8650  -26.0470 C   0  0  0  0  0  0  0  0  0  0  0  0
    2.6560  -12.2500  -25.7670 C   0  0  0  0  0  3  0  0  0  0  0  0
    3.2250  -12.9570  -26.8010 C   0  0  0  0  0  3  0  0  0  0  0  0
    3.7440  -12.0560  -27.6920 N   0  0  0  0  0  0  0  0  0  0  0  0
    3.5000  -10.7700  -27.2640 C   0  0  0  0  0  0  0  0  0  0  0  0
    3.8160   -9.5430  -27.8610 C   0  0  0  0  0  3  0  0  0  0  0  0
    4.2250  -12.2950  -28.5490 H   0  0  0  0  0  0  0  0  0  0  0  0
   -0.4490   -6.3890  -24.0400 C   0  0  0  0  0  2  0  0  0  0  0  0
   -1.6270  -11.8230  -21.4660 C   0  0  0  0  0  0  0  0  0  0  0  0
   -0.8840  -12.6470  -22.3270 C   0  0  0  0  0  3  0  0  0  0  0  0
   -0.1940  -12.0840  -23.3860 C   0  0  0  0  0  3  0  0  0  0  0  0
   -0.2490  -10.7050  -23.5670 C   0  0  0  0  0  3  0  0  0  0  0  0
   -0.9870   -9.8640  -22.6860 C   0  0  0  0  0  0  0  0  0  0  0  0
   -1.0510   -8.4580  -22.8040 C   0  0  0  0  0  0  0  0  0  0  0  0
   -0.3390   -7.8190  -23.8130 N   0  0  0  0  0  0  0  0  0  0  0  0
   -1.7990   -7.7080  -21.9810 N   0  0  0  0  0  0  0  0  0  0  0  0
   -2.4430   -8.3500  -21.0040 C   0  0  0  0  0  3  0  0  0  0  0  0
   -2.4080   -9.6630  -20.7710 N   0  0  0  0  0  0  0  0  0  0  0  0
   -1.7030  -10.4310  -21.6200 C   0  0  0  0  0  0  0  0  0  0  0  0
    0.5780   -8.2060  -23.9840 H   0  0  0  0  0  0  0  0  0  0  0  0
   -1.6330  -12.7850  -19.2620 N   0  0  0  0  0  0  0  0  0  0  0  0
   -2.3690  -12.4860  -20.3760 C   0  0  0  0  0  0  0  0  0  0  0  0
   -3.5430  -12.8060  -20.4820 O   0  0  0  0  0  0  0  0  0  0  0  0
   -2.1100  -13.2440  -18.4980 H   0  0  0  0  0  0  0  0  0  0  0  0
   -0.6680  -12.5110  -19.1420 H   0  0  0  0  0  0  0  0  0  0  0  0
  1 21  1  0  0  0  0
  2  1  2  0  0  0  0
  3  2  1  0  0  0  0
  4  3  2  0  0  0  0
  4  5  1  0  0  0  0
  5  6  2  0  0  0  0
  6  1  1  0  0  0  0
  7  8  1  0  0  0  0
  7  5  1  0  0  0  0
  8 11  1  0  0  0  0
  9  8  2  0  0  0  0
 10  7  1  0  0  0  0
 11 12  1  0  0  0  0
 12 13  2  0  0  0  0
 14 15  1  0  0  0  0
 14 13  1  0  0  0  0
 16 15  2  0  0  0  0
 17 18  1  0  0  0  0
 17 16  1  0  0  0  0
 18 14  2  0  0  0  0
 19 18  1  0  0  0  0
 19 11  2  0  0  0  0
 20 17  1  0  0  0  0
 21 28  1  0  0  0  0
 22 35  1  0  0  0  0
 23 22  2  0  0  0  0
 24 23  1  0  0  0  0
 25 24  2  0  0  0  0
 25 26  1  0  0  0  0
 26 32  1  0  0  0  0
 27 26  2  0  0  0  0
 27 29  1  0  0  0  0
 28 27  1  0  0  0  0
 29 30  2  0  0  0  0
 30 31  1  0  0  0  0
 32 22  1  0  0  0  0
 32 31  2  0  0  0  0
 33 28  1  0  0  0  0
 34 38  1  0  0  0  0
 34 37  1  0  0  0  0
 35 34  1  0  0  0  0
 36 35  2  0  0  0  0
M  END
>  <minimizedAffinity>
-10.3017998

$$$$

 OpenBabel10152420033D

 38 42  0  0  0  0  0  0  0  0999 V2000
   -0.3940   -6.0260  -27.2010 C   0  0  0  0  0  0  0  0  0  0  0  0
   -0.4640   -4.6370  -27.0510 C   0  0  0  0  0  3  0  0  0  0  0  0
    0.6110   -3.8420  -27.4280 C   0  0  0  0  0  3  0  0  0  0  0  0
    1.7760   -4.4240  -27.9380 C   0  0  0  0  0  3  0  0  0  0  0  0
    1.8980   -5.8090  -28.0490 C   0  0  0  0  0  0  0  0  0  0  0  0
    0.7930   -6.5990  -27.6920 C   0  0  0  0  0  3  0  0  0  0  0  0
    3.0350   -6.5040  -28.5050 N   0  0  0  0  0  0  0  0  0  0  0  0
    3.6930   -7.6430  -28.1040 C   0  0  0  0  0  0  0  0  0  0  0  0
    4.7210   -7.9930  -28.6820 O   0  0  0  0  0  0  0  0  0  0  0  0
    3.5120   -6.0950  -29.3010 H   0  0  0  0  0  0  0  0  0  0  0  0
    3.2180   -8.4670  -26.9870 C   0  0  0  0  0  0  0  0  0  0  0  0
    2.6850   -7.8210  -25.8710 C   0  0  0  0  0  3  0  0  0  0  0  0
    2.1720   -8.5710  -24.8080 C   0  0  0  0  0  3  0  0  0  0  0  0
    2.2030   -9.9780  -24.8790 C   0  0  0  0  0  0  0  0  0  0  0  0
    1.7460  -11.0170  -24.0230 C   0  0  0  0  0  3  0  0  0  0  0  0
    2.0450  -12.2180  -24.6230 C   0  0  0  0  0  3  0  0  0  0  0  0
    2.6830  -11.9500  -25.8050 N   0  0  0  0  0  0  0  0  0  0  0  0
    2.7820  -10.5900  -25.9940 C   0  0  0  0  0  0  0  0  0  0  0  0
    3.3230   -9.8620  -27.0610 C   0  0  0  0  0  3  0  0  0  0  0  0
    3.0220  -12.6470  -26.4550 H   0  0  0  0  0  0  0  0  0  0  0  0
   -1.6080   -6.8860  -26.9280 C   0  0  0  0  0  2  0  0  0  0  0  0
   -1.7000  -10.0140  -21.6610 C   0  0  0  0  0  0  0  0  0  0  0  0
   -1.7070   -8.9390  -20.7580 C   0  0  0  0  0  3  0  0  0  0  0  0
   -1.6800   -7.6420  -21.2410 C   0  0  0  0  0  3  0  0  0  0  0  0
   -1.6550   -7.4360  -22.6170 C   0  0  0  0  0  3  0  0  0  0  0  0
   -1.6660   -8.5240  -23.5360 C   0  0  0  0  0  0  0  0  0  0  0  0
   -1.6730   -8.3740  -24.9390 C   0  0  0  0  0  0  0  0  0  0  0  0
   -1.7000   -7.0990  -25.4950 N   0  0  0  0  0  0  0  0  0  0  0  0
   -1.6330   -9.4270  -25.7690 N   0  0  0  0  0  0  0  0  0  0  0  0
   -1.6420  -10.6360  -25.2030 C   0  0  0  0  0  3  0  0  0  0  0  0
   -1.6880  -10.8910  -23.8950 N   0  0  0  0  0  0  0  0  0  0  0  0
   -1.6760   -9.8430  -23.0520 C   0  0  0  0  0  0  0  0  0  0  0  0
   -2.2960   -6.4450  -25.0060 H   0  0  0  0  0  0  0  0  0  0  0  0
   -0.6560  -12.1730  -21.4750 N   0  0  0  0  0  0  0  0  0  0  0  0
   -1.6960  -11.3740  -21.0850 C   0  0  0  0  0  0  0  0  0  0  0  0
   -2.5900  -11.7810  -20.3600 O   0  0  0  0  0  0  0  0  0  0  0  0
   -0.6260  -13.1120  -21.1010 H   0  0  0  0  0  0  0  0  0  0  0  0
    0.1060  -11.8520  -22.0540 H   0  0  0  0  0  0  0  0  0  0  0  0
  1  2  1  0  0  0  0
  1 21  1  0  0  0  0
  3  2  2  0  0  0  0
  4  3  1  0  0  0  0
  5  4  2  0  0  0  0
  5  6  1  0  0  0  0
  6  1  2  0  0  0  0
  7  8  1  0  0  0  0
  7  5  1  0  0  0  0
  8 11  1  0  0  0  0
  9  8  2  0  0  0  0
 10  7  1  0  0  0  0
 11 12  1  0  0  0  0
 12 13  2  0  0  0  0
 14 13  1  0  0  0  0
 14 15  1  0  0  0  0
 16 15  2  0  0  0  0
 17 16  1  0  0  0  0
 18 17  1  0  0  0  0
 18 14  2  0  0  0  0
 19 11  2  0  0  0  0
 19 18  1  0  0  0  0
 20 17  1  0  0  0  0
 21 28  1  0  0  0  0
 22 35  1  0  0  0  0
 22 23  1  0  0  0  0
 24 23  2  0  0  0  0
 25 24  1  0  0  0  0
 26 32  1  0  0  0  0
 26 25  2  0  0  0  0
 27 26  1  0  0  0  0
 28 33  1  0  0  0  0
 28 27  1  0  0  0  0
 29 30  1  0  0  0  0
 29 27  2  0  0  0  0
 30 31  2  0  0  0  0
 31 32  1  0  0  0  0
 32 22  2  0  0  0  0
 34 37  1  0  0  0  0
 34 35  1  0  0  0  0
 35 36  2  0  0  0  0
 38 34  1  0  0  0  0
M  END
>  <minimizedAffinity>
-10.0830956

$$$$

 OpenBabel10152420033D

 38 42  0  0  0  0  0  0  0  0999 V2000
    4.4300   -9.2250  -29.1080 C   0  0  0  0  0  0  0  0  0  0  0  0
    4.0150   -9.8130  -30.3070 C   0  0  0  0  0  3  0  0  0  0  0  0
    3.7190  -11.1710  -30.3500 C   0  0  0  0  0  3  0  0  0  0  0  0
    3.8540  -11.9600  -29.2020 C   0  0  0  0  0  3  0  0  0  0  0  0
    4.3180  -11.4140  -28.0060 C   0  0  0  0  0  0  0  0  0  0  0  0
    4.5860  -10.0350  -27.9690 C   0  0  0  0  0  3  0  0  0  0  0  0
    4.5350  -12.1180  -26.8050 N   0  0  0  0  0  0  0  0  0  0  0  0
    3.8030  -12.3170  -25.6590 C   0  0  0  0  0  0  0  0  0  0  0  0
    4.2850  -12.9580  -24.7270 O   0  0  0  0  0  0  0  0  0  0  0  0
    5.4300  -12.5880  -26.7260 H   0  0  0  0  0  0  0  0  0  0  0  0
    2.4500  -11.7750  -25.4930 C   0  0  0  0  0  0  0  0  0  0  0  0
    1.5900  -11.7990  -26.5920 C   0  0  0  0  0  3  0  0  0  0  0  0
    0.2750  -11.3420  -26.4610 C   0  0  0  0  0  3  0  0  0  0  0  0
   -0.1650  -10.8580  -25.2140 C   0  0  0  0  0  0  0  0  0  0  0  0
   -1.4110  -10.3680  -24.7320 C   0  0  0  0  0  3  0  0  0  0  0  0
   -1.2480  -10.0420  -23.4040 C   0  0  0  0  0  3  0  0  0  0  0  0
    0.0530  -10.2990  -23.0640 N   0  0  0  0  0  0  0  0  0  0  0  0
    0.7350  -10.8090  -24.1460 C   0  0  0  0  0  0  0  0  0  0  0  0
    2.0640  -11.2400  -24.2570 C   0  0  0  0  0  3  0  0  0  0  0  0
    0.4570  -10.1490  -22.1500 H   0  0  0  0  0  0  0  0  0  0  0  0
    4.6170   -7.7260  -29.0170 C   0  0  0  0  0  2  0  0  0  0  0  0
   -0.2600   -6.1250  -25.6720 C   0  0  0  0  0  0  0  0  0  0  0  0
   -0.9080   -5.2940  -26.5990 C   0  0  0  0  0  3  0  0  0  0  0  0
   -0.3370   -5.0810  -27.8420 C   0  0  0  0  0  3  0  0  0  0  0  0
    0.8680   -5.7070  -28.1450 C   0  0  0  0  0  3  0  0  0  0  0  0
    1.5190   -6.5650  -27.2140 C   0  0  0  0  0  0  0  0  0  0  0  0
    2.7250   -7.2490  -27.4790 C   0  0  0  0  0  0  0  0  0  0  0  0
    3.3280   -7.1250  -28.7260 N   0  0  0  0  0  0  0  0  0  0  0  0
    3.3310   -8.0100  -26.5540 N   0  0  0  0  0  0  0  0  0  0  0  0
    2.7090   -8.1340  -25.3800 C   0  0  0  0  0  3  0  0  0  0  0  0
    1.5450   -7.5760  -25.0440 N   0  0  0  0  0  0  0  0  0  0  0  0
    0.9540   -6.7710  -25.9450 C   0  0  0  0  0  0  0  0  0  0  0  0
    2.6800   -7.1140  -29.5010 H   0  0  0  0  0  0  0  0  0  0  0  0
   -0.1660   -5.8460  -23.2850 N   0  0  0  0  0  0  0  0  0  0  0  0
   -0.9010   -6.2850  -24.3520 C   0  0  0  0  0  0  0  0  0  0  0  0
   -1.9850   -6.8300  -24.2120 O   0  0  0  0  0  0  0  0  0  0  0  0
   -0.5750   -5.9450  -22.3660 H   0  0  0  0  0  0  0  0  0  0  0  0
    0.7210   -5.3720  -23.3780 H   0  0  0  0  0  0  0  0  0  0  0  0
  1 21  1  0  0  0  0
  1  6  1  0  0  0  0
  2  1  2  0  0  0  0
  3  2  1  0  0  0  0
  3  4  2  0  0  0  0
  4  5  1  0  0  0  0
  5  6  2  0  0  0  0
  5  7  1  0  0  0  0
  7 10  1  0  0  0  0
  7  8  1  0  0  0  0
  8 11  1  0  0  0  0
  8  9  2  0  0  0  0
 11 19  1  0  0  0  0
 12 13  1  0  0  0  0
 12 11  2  0  0  0  0
 13 14  2  0  0  0  0
 14 15  1  0  0  0  0
 14 18  1  0  0  0  0
 15 16  2  0  0  0  0
 16 17  1  0  0  0  0
 17 20  1  0  0  0  0
 18 17  1  0  0  0  0
 19 18  2  0  0  0  0
 21 28  1  0  0  0  0
 22 35  1  0  0  0  0
 23 22  2  0  0  0  0
 24 23  1  0  0  0  0
 25 24  2  0  0  0  0
 25 26  1  0  0  0  0
 26 32  1  0  0  0  0
 27 26  2  0  0  0  0
 27 29  1  0  0  0  0
 28 27  1  0  0  0  0
 29 30  2  0  0  0  0
 30 31  1  0  0  0  0
 32 22  1  0  0  0  0
 32 31  2  0  0  0  0
 33 28  1  0  0  0  0
 34 37  1  0  0  0  0
 35 36  2  0  0  0  0
 35 34  1  0  0  0  0
 38 34  1  0  0  0  0
M  END
>  <minimizedAffinity>
-9.91269684

$$$$

 OpenBabel10152420033D

 38 42  0  0  0  0  0  0  0  0999 V2000
   -0.5980   -5.4520  -26.8070 C   0  0  0  0  0  0  0  0  0  0  0  0
   -0.5120   -4.0650  -26.6470 C   0  0  0  0  0  3  0  0  0  0  0  0
    0.4830   -3.3490  -27.3030 C   0  0  0  0  0  3  0  0  0  0  0  0
    1.4160   -4.0120  -28.1070 C   0  0  0  0  0  3  0  0  0  0  0  0
    1.3900   -5.4000  -28.2430 C   0  0  0  0  0  0  0  0  0  0  0  0
    0.3620   -6.1070  -27.5990 C   0  0  0  0  0  3  0  0  0  0  0  0
    2.3020   -6.1740  -28.9870 N   0  0  0  0  0  0  0  0  0  0  0  0
    3.0100   -7.3270  -28.7440 C   0  0  0  0  0  0  0  0  0  0  0  0
    3.7920   -7.7560  -29.5910 O   0  0  0  0  0  0  0  0  0  0  0  0
    2.5220   -5.8260  -29.9140 H   0  0  0  0  0  0  0  0  0  0  0  0
    2.8770   -8.0750  -27.4890 C   0  0  0  0  0  0  0  0  0  0  0  0
    2.4150   -7.3940  -26.3610 C   0  0  0  0  0  3  0  0  0  0  0  0
    2.2230   -8.0830  -25.1600 C   0  0  0  0  0  3  0  0  0  0  0  0
    2.5030   -9.4630  -25.1040 C   0  0  0  0  0  0  0  0  0  0  0  0
    2.3860  -10.4500  -24.0870 C   0  0  0  0  0  3  0  0  0  0  0  0
    2.8050  -11.6490  -24.6160 C   0  0  0  0  0  3  0  0  0  0  0  0
    3.1890  -11.4260  -25.9120 N   0  0  0  0  0  0  0  0  0  0  0  0
    3.0030  -10.1020  -26.2410 C   0  0  0  0  0  0  0  0  0  0  0  0
    3.2260   -9.4310  -27.4500 C   0  0  0  0  0  3  0  0  0  0  0  0
    3.5440  -12.1310  -26.5440 H   0  0  0  0  0  0  0  0  0  0  0  0
   -1.7590   -6.2180  -26.2140 C   0  0  0  0  0  2  0  0  0  0  0  0
   -0.8770  -11.6670  -23.5550 C   0  0  0  0  0  0  0  0  0  0  0  0
   -0.5350  -12.4210  -24.6890 C   0  0  0  0  0  3  0  0  0  0  0  0
   -0.5090  -11.8110  -25.9320 C   0  0  0  0  0  3  0  0  0  0  0  0
   -0.8160  -10.4570  -26.0230 C   0  0  0  0  0  3  0  0  0  0  0  0
   -1.1460   -9.6860  -24.8730 C   0  0  0  0  0  0  0  0  0  0  0  0
   -1.4350   -8.3040  -24.9030 C   0  0  0  0  0  0  0  0  0  0  0  0
   -1.3760   -7.6150  -26.1090 N   0  0  0  0  0  0  0  0  0  0  0  0
   -1.7900   -7.6260  -23.8010 N   0  0  0  0  0  0  0  0  0  0  0  0
   -1.8050   -8.3110  -22.6560 C   0  0  0  0  0  3  0  0  0  0  0  0
   -1.4990   -9.6010  -22.5060 N   0  0  0  0  0  0  0  0  0  0  0  0
   -1.1920  -10.3020  -23.6120 C   0  0  0  0  0  0  0  0  0  0  0  0
   -0.6090   -7.8900  -26.7080 H   0  0  0  0  0  0  0  0  0  0  0  0
   -2.1070  -12.2980  -21.5870 N   0  0  0  0  0  0  0  0  0  0  0  0
   -0.9210  -12.3820  -22.2640 C   0  0  0  0  0  0  0  0  0  0  0  0
    0.0520  -12.9550  -21.7990 O   0  0  0  0  0  0  0  0  0  0  0  0
   -2.1680  -12.7730  -20.6960 H   0  0  0  0  0  0  0  0  0  0  0  0
   -2.9310  -11.8500  -21.9600 H   0  0  0  0  0  0  0  0  0  0  0  0
  1  2  1  0  0  0  0
  1 21  1  0  0  0  0
  3  2  2  0  0  0  0
  4  3  1  0  0  0  0
  5  4  2  0  0  0  0
  5  6  1  0  0  0  0
  6  1  2  0  0  0  0
  7  8  1  0  0  0  0
  7  5  1  0  0  0  0
  8 11  1  0  0  0  0
  9  8  2  0  0  0  0
 10  7  1  0  0  0  0
 11 19  2  0  0  0  0
 11 12  1  0  0  0  0
 12 13  2  0  0  0  0
 13 14  1  0  0  0  0
 14 15  1  0  0  0  0
 16 15  2  0  0  0  0
 17 16  1  0  0  0  0
 18 17  1  0  0  0  0
 18 14  2  0  0  0  0
 19 18  1  0  0  0  0
 20 17  1  0  0  0  0
 21 28  1  0  0  0  0
 22 35  1  0  0  0  0
 23 22  2  0  0  0  0
 24 23  1  0  0  0  0
 25 24  2  0  0  0  0
 25 26  1  0  0  0  0
 26 32  1  0  0  0  0
 27 26  2  0  0  0  0
 27 29  1  0  0  0  0
 28 27  1  0  0  0  0
 29 30  2  0  0  0  0
 30 31  1  0  0  0  0
 32 22  1  0  0  0  0
 32 31  2  0  0  0  0
 33 28  1  0  0  0  0
 34 37  1  0  0  0  0
 35 36  2  0  0  0  0
 35 34  1  0  0  0  0
 38 34  1  0  0  0  0
M  END
>  <minimizedAffinity>
-9.61835861

$$$$

 OpenBabel10152420033D

 38 42  0  0  0  0  0  0  0  0999 V2000
    2.8870  -10.5580  -26.4010 C   0  0  0  0  0  0  0  0  0  0  0  0
    2.7240  -11.2400  -27.6110 C   0  0  0  0  0  3  0  0  0  0  0  0
    2.0020  -12.4270  -27.6500 C   0  0  0  0  0  3  0  0  0  0  0  0
    1.4530  -12.9570  -26.4780 C   0  0  0  0  0  3  0  0  0  0  0  0
    1.6440  -12.3300  -25.2470 C   0  0  0  0  0  0  0  0  0  0  0  0
    2.3510  -11.1170  -25.2270 C   0  0  0  0  0  3  0  0  0  0  0  0
    1.1770  -12.7950  -24.0010 N   0  0  0  0  0  0  0  0  0  0  0  0
    0.2460  -12.3490  -23.0940 C   0  0  0  0  0  0  0  0  0  0  0  0
    0.0820  -12.9540  -22.0360 O   0  0  0  0  0  0  0  0  0  0  0  0
    1.6140  -13.6430  -23.6560 H   0  0  0  0  0  0  0  0  0  0  0  0
   -0.5670  -11.1520  -23.3340 C   0  0  0  0  0  0  0  0  0  0  0  0
   -0.8040  -10.7690  -24.6560 C   0  0  0  0  0  3  0  0  0  0  0  0
   -1.6180   -9.6660  -24.9290 C   0  0  0  0  0  3  0  0  0  0  0  0
   -2.1910   -8.9500  -23.8580 C   0  0  0  0  0  0  0  0  0  0  0  0
   -3.0720   -7.8370  -23.7780 C   0  0  0  0  0  3  0  0  0  0  0  0
   -3.2990   -7.5760  -22.4460 C   0  0  0  0  0  3  0  0  0  0  0  0
   -2.5750   -8.4770  -21.7120 N   0  0  0  0  0  0  0  0  0  0  0  0
   -1.8980   -9.3360  -22.5480 C   0  0  0  0  0  0  0  0  0  0  0  0
   -1.0670  -10.4240  -22.2460 C   0  0  0  0  0  3  0  0  0  0  0  0
   -2.5490   -8.5180  -20.7020 H   0  0  0  0  0  0  0  0  0  0  0  0
    3.5480   -9.1980  -26.3740 C   0  0  0  0  0  2  0  0  0  0  0  0
   -0.3710   -4.5100  -25.9230 C   0  0  0  0  0  0  0  0  0  0  0  0
   -0.7760   -4.6800  -24.5890 C   0  0  0  0  0  3  0  0  0  0  0  0
   -0.2590   -5.7270  -23.8470 C   0  0  0  0  0  3  0  0  0  0  0  0
    0.6600   -6.5860  -24.4430 C   0  0  0  0  0  3  0  0  0  0  0  0
    1.0860   -6.4060  -25.7900 C   0  0  0  0  0  0  0  0  0  0  0  0
    2.0380   -7.2260  -26.4340 C   0  0  0  0  0  0  0  0  0  0  0  0
    2.6390   -8.2650  -25.7320 N   0  0  0  0  0  0  0  0  0  0  0  0
    2.3740   -7.0510  -27.7210 N   0  0  0  0  0  0  0  0  0  0  0  0
    1.8040   -6.0240  -28.3550 C   0  0  0  0  0  3  0  0  0  0  0  0
    0.9360   -5.1590  -27.8280 N   0  0  0  0  0  0  0  0  0  0  0  0
    0.5520   -5.3560  -26.5530 C   0  0  0  0  0  0  0  0  0  0  0  0
    2.8680   -8.0410  -24.7730 H   0  0  0  0  0  0  0  0  0  0  0  0
   -0.1030   -2.5120  -27.2350 N   0  0  0  0  0  0  0  0  0  0  0  0
   -0.9840   -3.3960  -26.6730 C   0  0  0  0  0  0  0  0  0  0  0  0
   -2.1930   -3.2340  -26.7360 O   0  0  0  0  0  0  0  0  0  0  0  0
   -0.4910   -1.7350  -27.7520 H   0  0  0  0  0  0  0  0  0  0  0  0
    0.8990   -2.6360  -27.2160 H   0  0  0  0  0  0  0  0  0  0  0  0
  1 21  1  0  0  0  0
  1  6  1  0  0  0  0
  2  1  2  0  0  0  0
  3  2  1  0  0  0  0
  3  4  2  0  0  0  0
  4  5  1  0  0  0  0
  5  6  2  0  0  0  0
  5  7  1  0  0  0  0
  7 10  1  0  0  0  0
  7  8  1  0  0  0  0
  8  9  2  0  0  0  0
 11  8  1  0  0  0  0
 11 19  1  0  0  0  0
 12 11  2  0  0  0  0
 13 12  1  0  0  0  0
 13 14  2  0  0  0  0
 14 15  1  0  0  0  0
 14 18  1  0  0  0  0
 15 16  2  0  0  0  0
 16 17  1  0  0  0  0
 17 20  1  0  0  0  0
 18 19  2  0  0  0  0
 18 17  1  0  0  0  0
 21 28  1  0  0  0  0
 22 23  1  0  0  0  0
 23 24  2  0  0  0  0
 25 24  1  0  0  0  0
 26 25  2  0  0  0  0
 27 26  1  0  0  0  0
 27 28  1  0  0  0  0
 28 33  1  0  0  0  0
 29 27  2  0  0  0  0
 30 31  2  0  0  0  0
 30 29  1  0  0  0  0
 31 32  1  0  0  0  0
 32 22  2  0  0  0  0
 32 26  1  0  0  0  0
 34 38  1  0  0  0  0
 34 35  1  0  0  0  0
 35 22  1  0  0  0  0
 36 35  2  0  0  0  0
 37 34  1  0  0  0  0
M  END
>  <minimizedAffinity>
-9.14055729

$$$$

 OpenBabel10152420033D

 38 42  0  0  0  0  0  0  0  0999 V2000
   -1.2460   -7.2990  -23.3350 C   0  0  0  0  0  0  0  0  0  0  0  0
   -2.5870   -6.9300  -23.4830 C   0  0  0  0  0  3  0  0  0  0  0  0
   -3.5860   -7.6840  -22.8780 C   0  0  0  0  0  3  0  0  0  0  0  0
   -3.2600   -8.8250  -22.1380 C   0  0  0  0  0  3  0  0  0  0  0  0
   -1.9370   -9.2490  -22.0170 C   0  0  0  0  0  0  0  0  0  0  0  0
   -0.9350   -8.4630  -22.6090 C   0  0  0  0  0  3  0  0  0  0  0  0
   -1.4980  -10.4020  -21.3370 N   0  0  0  0  0  0  0  0  0  0  0  0
   -0.8220  -11.5400  -21.7070 C   0  0  0  0  0  0  0  0  0  0  0  0
   -0.6150  -12.4270  -20.8800 O   0  0  0  0  0  0  0  0  0  0  0  0
   -1.7250  -10.4440  -20.3490 H   0  0  0  0  0  0  0  0  0  0  0  0
   -0.3400  -11.7510  -23.0760 C   0  0  0  0  0  0  0  0  0  0  0  0
   -1.1790  -11.3960  -24.1340 C   0  0  0  0  0  3  0  0  0  0  0  0
   -0.7360  -11.5310  -25.4530 C   0  0  0  0  0  3  0  0  0  0  0  0
    0.5590  -12.0290  -25.6980 C   0  0  0  0  0  0  0  0  0  0  0  0
    1.3220  -12.2520  -26.8780 C   0  0  0  0  0  3  0  0  0  0  0  0
    2.5460  -12.7530  -26.4980 C   0  0  0  0  0  3  0  0  0  0  0  0
    2.5510  -12.8610  -25.1330 N   0  0  0  0  0  0  0  0  0  0  0  0
    1.3560  -12.4140  -24.6160 C   0  0  0  0  0  0  0  0  0  0  0  0
    0.9280  -12.3110  -23.2860 C   0  0  0  0  0  3  0  0  0  0  0  0
    3.3240  -13.2050  -24.5790 H   0  0  0  0  0  0  0  0  0  0  0  0
   -0.1460   -6.4080  -23.8690 C   0  0  0  0  0  2  0  0  0  0  0  0
    3.4950   -8.2280  -28.4480 C   0  0  0  0  0  0  0  0  0  0  0  0
    4.1630   -9.2810  -27.8020 C   0  0  0  0  0  3  0  0  0  0  0  0
    3.8660   -9.5700  -26.4820 C   0  0  0  0  0  3  0  0  0  0  0  0
    2.9010   -8.8100  -25.8270 C   0  0  0  0  0  3  0  0  0  0  0  0
    2.2090   -7.7540  -26.4840 C   0  0  0  0  0  0  0  0  0  0  0  0
    1.2010   -6.9730  -25.8790 C   0  0  0  0  0  0  0  0  0  0  0  0
    0.8130   -7.2420  -24.5710 N   0  0  0  0  0  0  0  0  0  0  0  0
    0.6090   -5.9530  -26.5200 N   0  0  0  0  0  0  0  0  0  0  0  0
    0.9810   -5.7440  -27.7840 C   0  0  0  0  0  3  0  0  0  0  0  0
    1.8810   -6.4530  -28.4670 N   0  0  0  0  0  0  0  0  0  0  0  0
    2.5180   -7.4440  -27.8180 C   0  0  0  0  0  0  0  0  0  0  0  0
    0.7640   -8.2260  -24.3460 H   0  0  0  0  0  0  0  0  0  0  0  0
    4.5460   -6.7690  -30.0450 N   0  0  0  0  0  0  0  0  0  0  0  0
    3.8800   -7.9470  -29.8460 C   0  0  0  0  0  0  0  0  0  0  0  0
    3.5700   -8.6810  -30.7710 O   0  0  0  0  0  0  0  0  0  0  0  0
    4.8210   -6.5440  -30.9920 H   0  0  0  0  0  0  0  0  0  0  0  0
    4.8340   -6.1580  -29.2940 H   0  0  0  0  0  0  0  0  0  0  0  0
  1  6  1  0  0  0  0
  2  1  2  0  0  0  0
  2  3  1  0  0  0  0
  3  4  2  0  0  0  0
  4  5  1  0  0  0  0
  5  7  1  0  0  0  0
  6  5  2  0  0  0  0
  7 10  1  0  0  0  0
  8  7  1  0  0  0  0
  8  9  2  0  0  0  0
 11  8  1  0  0  0  0
 12 11  2  0  0  0  0
 13 12  1  0  0  0  0
 14 13  2  0  0  0  0
 14 18  1  0  0  0  0
 15 16  2  0  0  0  0
 15 14  1  0  0  0  0
 16 17  1  0  0  0  0
 17 18  1  0  0  0  0
 17 20  1  0  0  0  0
 18 19  2  0  0  0  0
 19 11  1  0  0  0  0
 21  1  1  0  0  0  0
 22 32  2  0  0  0  0
 22 23  1  0  0  0  0
 23 24  2  0  0  0  0
 24 25  1  0  0  0  0
 26 27  1  0  0  0  0
 26 25  2  0  0  0  0
 27 28  1  0  0  0  0
 28 33  1  0  0  0  0
 28 21  1  0  0  0  0
 29 27  2  0  0  0  0
 30 29  1  0  0  0  0
 31 32  1  0  0  0  0
 31 30  2  0  0  0  0
 32 26  1  0  0  0  0
 34 35  1  0  0  0  0
 34 38  1  0  0  0  0
 35 22  1  0  0  0  0
 36 35  2  0  0  0  0
 37 34  1  0  0  0  0
M  END
>  <minimizedAffinity>
-9.01287651

$$$$

 OpenBabel10152420033D

 38 42  0  0  0  0  0  0  0  0999 V2000
   -1.3670   -7.1180  -23.1380 C   0  0  0  0  0  0  0  0  0  0  0  0
   -2.6180   -6.9450  -23.7390 C   0  0  0  0  0  3  0  0  0  0  0  0
   -3.5740   -7.9510  -23.6560 C   0  0  0  0  0  3  0  0  0  0  0  0
   -3.2850   -9.1470  -22.9910 C   0  0  0  0  0  3  0  0  0  0  0  0
   -2.0280   -9.3710  -22.4290 C   0  0  0  0  0  0  0  0  0  0  0  0
   -1.0820   -8.3360  -22.4950 C   0  0  0  0  0  3  0  0  0  0  0  0
   -1.6130  -10.5490  -21.7780 N   0  0  0  0  0  0  0  0  0  0  0  0
   -0.7970  -11.6020  -22.1190 C   0  0  0  0  0  0  0  0  0  0  0  0
   -0.6550  -12.5440  -21.3410 O   0  0  0  0  0  0  0  0  0  0  0  0
   -1.9910  -10.6950  -20.8480 H   0  0  0  0  0  0  0  0  0  0  0  0
   -0.0860  -11.6560  -23.4010 C   0  0  0  0  0  0  0  0  0  0  0  0
   -0.8420  -11.6850  -24.5740 C   0  0  0  0  0  3  0  0  0  0  0  0
   -0.2030  -11.6810  -25.8180 C   0  0  0  0  0  3  0  0  0  0  0  0
    1.2040  -11.6510  -25.8690 C   0  0  0  0  0  0  0  0  0  0  0  0
    2.1500  -11.6010  -26.9300 C   0  0  0  0  0  3  0  0  0  0  0  0
    3.4070  -11.5810  -26.3720 C   0  0  0  0  0  3  0  0  0  0  0  0
    3.2640  -11.6340  -25.0110 N   0  0  0  0  0  0  0  0  0  0  0  0
    1.9290  -11.6650  -24.6740 C   0  0  0  0  0  0  0  0  0  0  0  0
    1.3150  -11.6910  -23.4160 C   0  0  0  0  0  3  0  0  0  0  0  0
    4.0250  -11.6360  -24.3450 H   0  0  0  0  0  0  0  0  0  0  0  0
   -0.3740   -5.9770  -23.1010 C   0  0  0  0  0  2  0  0  0  0  0  0
    2.2820   -6.4900  -28.5980 C   0  0  0  0  0  0  0  0  0  0  0  0
    1.6270   -5.4420  -29.2660 C   0  0  0  0  0  3  0  0  0  0  0  0
    0.6790   -4.6910  -28.5930 C   0  0  0  0  0  3  0  0  0  0  0  0
    0.4030   -4.9910  -27.2620 C   0  0  0  0  0  3  0  0  0  0  0  0
    1.0780   -6.0420  -26.5780 C   0  0  0  0  0  0  0  0  0  0  0  0
    0.8600   -6.3690  -25.2220 C   0  0  0  0  0  0  0  0  0  0  0  0
   -0.0400   -5.6220  -24.4690 N   0  0  0  0  0  0  0  0  0  0  0  0
    1.4820   -7.3990  -24.6290 N   0  0  0  0  0  0  0  0  0  0  0  0
    2.3630   -8.0730  -25.3700 C   0  0  0  0  0  3  0  0  0  0  0  0
    2.6830   -7.8160  -26.6400 N   0  0  0  0  0  0  0  0  0  0  0  0
    2.0280   -6.8180  -27.2590 C   0  0  0  0  0  0  0  0  0  0  0  0
   -0.0140   -4.6290  -24.6560 H   0  0  0  0  0  0  0  0  0  0  0  0
    4.5340   -7.2830  -28.8870 N   0  0  0  0  0  0  0  0  0  0  0  0
    3.2580   -7.2760  -29.3790 C   0  0  0  0  0  0  0  0  0  0  0  0
    2.9640   -7.8300  -30.4270 O   0  0  0  0  0  0  0  0  0  0  0  0
    5.2280   -7.8090  -29.4010 H   0  0  0  0  0  0  0  0  0  0  0  0
    4.7960   -6.8520  -28.0120 H   0  0  0  0  0  0  0  0  0  0  0  0
  1 21  1  0  0  0  0
  1  6  1  0  0  0  0
  2  3  1  0  0  0  0
  2  1  2  0  0  0  0
  3  4  2  0  0  0  0
  4  5  1  0  0  0  0
  5  7  1  0  0  0  0
  6  5  2  0  0  0  0
  7 10  1  0  0  0  0
  8  7  1  0  0  0  0
  8  9  2  0  0  0  0
 11  8  1  0  0  0  0
 12 11  2  0  0  0  0
 13 12  1  0  0  0  0
 14 13  2  0  0  0  0
 14 18  1  0  0  0  0
 15 16  2  0  0  0  0
 15 14  1  0  0  0  0
 16 17  1  0  0  0  0
 17 18  1  0  0  0  0
 17 20  1  0  0  0  0
 18 19  2  0  0  0  0
 19 11  1  0  0  0  0
 22 32  1  0  0  0  0
 23 22  2  0  0  0  0
 23 24  1  0  0  0  0
 24 25  2  0  0  0  0
 25 26  1  0  0  0  0
 26 27  1  0  0  0  0
 27 29  2  0  0  0  0
 27 28  1  0  0  0  0
 28 21  1  0  0  0  0
 30 29  1  0  0  0  0
 31 30  2  0  0  0  0
 32 31  1  0  0  0  0
 32 26  2  0  0  0  0
 33 28  1  0  0  0  0
 34 38  1  0  0  0  0
 35 34  1  0  0  0  0
 35 22  1  0  0  0  0
 36 35  2  0  0  0  0
 37 34  1  0  0  0  0
M  END
>  <minimizedAffinity>
-8.40360641

$$$$

 OpenBabel10152420033D

 38 42  0  0  0  0  0  0  0  0999 V2000
   -1.3670  -10.0600  -22.6600 C   0  0  0  0  0  0  0  0  0  0  0  0
   -1.2230  -10.6510  -21.4000 C   0  0  0  0  0  3  0  0  0  0  0  0
   -0.5930  -11.8840  -21.2780 C   0  0  0  0  0  3  0  0  0  0  0  0
   -0.1190  -12.5500  -22.4120 C   0  0  0  0  0  3  0  0  0  0  0  0
   -0.2950  -12.0130  -23.6870 C   0  0  0  0  0  0  0  0  0  0  0  0
   -0.9070  -10.7530  -23.7940 C   0  0  0  0  0  3  0  0  0  0  0  0
    0.1010  -12.6130  -24.8990 N   0  0  0  0  0  0  0  0  0  0  0  0
    0.8790  -12.2180  -25.9600 C   0  0  0  0  0  0  0  0  0  0  0  0
    1.0110  -12.9590  -26.9330 O   0  0  0  0  0  0  0  0  0  0  0  0
   -0.2640  -13.5450  -25.0680 H   0  0  0  0  0  0  0  0  0  0  0  0
    1.5630  -10.9210  -25.9870 C   0  0  0  0  0  0  0  0  0  0  0  0
    1.3900  -10.0610  -24.9010 C   0  0  0  0  0  3  0  0  0  0  0  0
    2.0680   -8.8390  -24.8630 C   0  0  0  0  0  3  0  0  0  0  0  0
    2.9190   -8.4890  -25.9290 C   0  0  0  0  0  0  0  0  0  0  0  0
    3.7650   -7.3750  -26.1890 C   0  0  0  0  0  3  0  0  0  0  0  0
    4.3730   -7.5840  -27.4060 C   0  0  0  0  0  3  0  0  0  0  0  0
    3.9150   -8.7750  -27.9060 N   0  0  0  0  0  0  0  0  0  0  0  0
    3.0350   -9.3550  -27.0200 C   0  0  0  0  0  0  0  0  0  0  0  0
    2.3510  -10.5750  -27.0940 C   0  0  0  0  0  3  0  0  0  0  0  0
    4.1910   -9.1790  -28.7900 H   0  0  0  0  0  0  0  0  0  0  0  0
   -1.9220   -8.6590  -22.7860 C   0  0  0  0  0  2  0  0  0  0  0  0
   -0.0800   -4.5900  -26.9800 C   0  0  0  0  0  0  0  0  0  0  0  0
    0.0200   -5.4400  -28.0930 C   0  0  0  0  0  3  0  0  0  0  0  0
   -0.2720   -6.7860  -27.9530 C   0  0  0  0  0  3  0  0  0  0  0  0
   -0.6670   -7.2620  -26.7060 C   0  0  0  0  0  3  0  0  0  0  0  0
   -0.7860   -6.3990  -25.5800 C   0  0  0  0  0  0  0  0  0  0  0  0
   -1.2110   -6.8220  -24.3020 C   0  0  0  0  0  0  0  0  0  0  0  0
   -1.5730   -8.1500  -24.1010 N   0  0  0  0  0  0  0  0  0  0  0  0
   -1.2620   -5.9850  -23.2550 N   0  0  0  0  0  0  0  0  0  0  0  0
   -0.9410   -4.7120  -23.4900 C   0  0  0  0  0  3  0  0  0  0  0  0
   -0.5780   -4.1960  -24.6660 N   0  0  0  0  0  0  0  0  0  0  0  0
   -0.4740   -5.0370  -25.7120 C   0  0  0  0  0  0  0  0  0  0  0  0
   -2.0910   -8.5600  -24.8660 H   0  0  0  0  0  0  0  0  0  0  0  0
   -0.6620   -2.2650  -26.7800 N   0  0  0  0  0  0  0  0  0  0  0  0
    0.2780   -3.1720  -27.1850 C   0  0  0  0  0  0  0  0  0  0  0  0
    1.3130   -2.8310  -27.7370 O   0  0  0  0  0  0  0  0  0  0  0  0
   -0.4490   -1.2850  -26.9100 H   0  0  0  0  0  0  0  0  0  0  0  0
   -1.5140   -2.5220  -26.3010 H   0  0  0  0  0  0  0  0  0  0  0  0
  1  2  1  0  0  0  0
  2  3  2  0  0  0  0
  4  3  1  0  0  0  0
  5  4  2  0  0  0  0
  6  5  1  0  0  0  0
  6  1  2  0  0  0  0
  7  5  1  0  0  0  0
  8  7  1  0  0  0  0
  9  8  2  0  0  0  0
 10  7  1  0  0  0  0
 11  8  1  0  0  0  0
 11 12  1  0  0  0  0
 12 13  2  0  0  0  0
 14 13  1  0  0  0  0
 15 14  1  0  0  0  0
 16 15  2  0  0  0  0
 17 16  1  0  0  0  0
 17 18  1  0  0  0  0
 18 14  2  0  0  0  0
 19 18  1  0  0  0  0
 19 11  2  0  0  0  0
 20 17  1  0  0  0  0
 21  1  1  0  0  0  0
 22 32  1  0  0  0  0
 23 24  1  0  0  0  0
 23 22  2  0  0  0  0
 24 25  2  0  0  0  0
 25 26  1  0  0  0  0
 26 27  1  0  0  0  0
 27 28  1  0  0  0  0
 27 29  2  0  0  0  0
 28 21  1  0  0  0  0
 30 29  1  0  0  0  0
 31 30  2  0  0  0  0
 32 26  2  0  0  0  0
 32 31  1  0  0  0  0
 33 28  1  0  0  0  0
 34 38  1  0  0  0  0
 35 22  1  0  0  0  0
 35 34  1  0  0  0  0
 36 35  2  0  0  0  0
 37 34  1  0  0  0  0
M  END
>  <minimizedAffinity>
-8.15620136

$$$$

 OpenBabel10152420033D

 38 42  0  0  0  0  0  0  0  0999 V2000
    2.1230   -6.9550  -28.0920 C   0  0  0  0  0  0  0  0  0  0  0  0
    3.1620   -6.2700  -27.4550 C   0  0  0  0  0  3  0  0  0  0  0  0
    4.4550   -6.7770  -27.4920 C   0  0  0  0  0  3  0  0  0  0  0  0
    4.7220   -7.9840  -28.1470 C   0  0  0  0  0  3  0  0  0  0  0  0
    3.6980   -8.7180  -28.7450 C   0  0  0  0  0  0  0  0  0  0  0  0
    2.4010   -8.1800  -28.7250 C   0  0  0  0  0  3  0  0  0  0  0  0
    3.8410   -9.9620  -29.3900 N   0  0  0  0  0  0  0  0  0  0  0  0
    3.7910  -11.2730  -28.9790 C   0  0  0  0  0  0  0  0  0  0  0  0
    4.0100  -12.1770  -29.7830 O   0  0  0  0  0  0  0  0  0  0  0  0
    4.0410   -9.9220  -30.3840 H   0  0  0  0  0  0  0  0  0  0  0  0
    3.4930  -11.6450  -27.5910 C   0  0  0  0  0  0  0  0  0  0  0  0
    4.5630  -11.8660  -26.7230 C   0  0  0  0  0  3  0  0  0  0  0  0
    4.3220  -12.1690  -25.3800 C   0  0  0  0  0  3  0  0  0  0  0  0
    2.9930  -12.2490  -24.9190 C   0  0  0  0  0  0  0  0  0  0  0  0
    2.4050  -12.4900  -23.6460 C   0  0  0  0  0  3  0  0  0  0  0  0
    1.0380  -12.4410  -23.7990 C   0  0  0  0  0  3  0  0  0  0  0  0
    0.7710  -12.1970  -25.1200 N   0  0  0  0  0  0  0  0  0  0  0  0
    1.9460  -12.0630  -25.8260 C   0  0  0  0  0  0  0  0  0  0  0  0
    2.1600  -11.7810  -27.1810 C   0  0  0  0  0  3  0  0  0  0  0  0
   -0.1530  -12.1130  -25.5220 H   0  0  0  0  0  0  0  0  0  0  0  0
    0.7430   -6.3400  -28.1780 C   0  0  0  0  0  2  0  0  0  0  0  0
   -1.8060   -7.6450  -22.7620 C   0  0  0  0  0  0  0  0  0  0  0  0
   -1.5380   -6.4410  -22.0890 C   0  0  0  0  0  3  0  0  0  0  0  0
   -0.8520   -5.4320  -22.7420 C   0  0  0  0  0  3  0  0  0  0  0  0
   -0.4490   -5.6350  -24.0590 C   0  0  0  0  0  3  0  0  0  0  0  0
   -0.7340   -6.8470  -24.7490 C   0  0  0  0  0  0  0  0  0  0  0  0
   -0.3780   -7.0930  -26.0930 C   0  0  0  0  0  0  0  0  0  0  0  0
    0.2660   -6.1040  -26.8270 N   0  0  0  0  0  0  0  0  0  0  0  0
   -0.6230   -8.2690  -26.6900 N   0  0  0  0  0  0  0  0  0  0  0  0
   -1.2720   -9.1840  -25.9680 C   0  0  0  0  0  3  0  0  0  0  0  0
   -1.7000   -9.0370  -24.7130 N   0  0  0  0  0  0  0  0  0  0  0  0
   -1.4150   -7.8810  -24.0870 C   0  0  0  0  0  0  0  0  0  0  0  0
   -0.0770   -5.1690  -26.6560 H   0  0  0  0  0  0  0  0  0  0  0  0
   -1.8760   -9.9060  -21.9460 N   0  0  0  0  0  0  0  0  0  0  0  0
   -2.5110   -8.6950  -22.0010 C   0  0  0  0  0  0  0  0  0  0  0  0
   -3.6140   -8.5190  -21.5090 O   0  0  0  0  0  0  0  0  0  0  0  0
   -2.3350  -10.6490  -21.4360 H   0  0  0  0  0  0  0  0  0  0  0  0
   -0.9550  -10.0700  -22.3250 H   0  0  0  0  0  0  0  0  0  0  0  0
  1  2  1  0  0  0  0
  3  2  2  0  0  0  0
  4  3  1  0  0  0  0
  5  6  1  0  0  0  0
  5  4  2  0  0  0  0
  6  1  2  0  0  0  0
  7  8  1  0  0  0  0
  7  5  1  0  0  0  0
  8 11  1  0  0  0  0
  9  8  2  0  0  0  0
 10  7  1  0  0  0  0
 11 19  2  0  0  0  0
 11 12  1  0  0  0  0
 12 13  2  0  0  0  0
 13 14  1  0  0  0  0
 14 15  1  0  0  0  0
 16 15  2  0  0  0  0
 17 16  1  0  0  0  0
 18 17  1  0  0  0  0
 18 14  2  0  0  0  0
 19 18  1  0  0  0  0
 20 17  1  0  0  0  0
 21  1  1  0  0  0  0
 21 28  1  0  0  0  0
 22 23  1  0  0  0  0
 22 35  1  0  0  0  0
 24 23  2  0  0  0  0
 25 24  1  0  0  0  0
 26 32  1  0  0  0  0
 26 25  2  0  0  0  0
 27 26  1  0  0  0  0
 28 33  1  0  0  0  0
 28 27  1  0  0  0  0
 29 27  2  0  0  0  0
 29 30  1  0  0  0  0
 30 31  2  0  0  0  0
 31 32  1  0  0  0  0
 32 22  2  0  0  0  0
 34 37  1  0  0  0  0
 35 34  1  0  0  0  0
 35 36  2  0  0  0  0
 38 34  1  0  0  0  0
M  END
>  <minimizedAffinity>
-8.09175777

$$$$
