
 OpenBabel10152420033D

 38 42  0  0  0  0  0  0  0  0999 V2000
   -0.3940   -6.0260  -27.2010 C   0  0  0  0  0  0  0  0  0  0  0  0
   -0.4640   -4.6370  -27.0510 C   0  0  0  0  0  3  0  0  0  0  0  0
    0.6110   -3.8420  -27.4280 C   0  0  0  0  0  3  0  0  0  0  0  0
    1.7760   -4.4240  -27.9380 C   0  0  0  0  0  3  0  0  0  0  0  0
    1.8980   -5.8090  -28.0490 C   0  0  0  0  0  0  0  0  0  0  0  0
    0.7930   -6.5990  -27.6920 C   0  0  0  0  0  3  0  0  0  0  0  0
    3.0350   -6.5040  -28.5050 N   0  0  0  0  0  0  0  0  0  0  0  0
    3.6930   -7.6430  -28.1040 C   0  0  0  0  0  0  0  0  0  0  0  0
    4.7210   -7.9930  -28.6820 O   0  0  0  0  0  0  0  0  0  0  0  0
    3.5120   -6.0950  -29.3010 H   0  0  0  0  0  0  0  0  0  0  0  0
    3.2180   -8.4670  -26.9870 C   0  0  0  0  0  0  0  0  0  0  0  0
    2.6850   -7.8210  -25.8710 C   0  0  0  0  0  3  0  0  0  0  0  0
    2.1720   -8.5710  -24.8080 C   0  0  0  0  0  3  0  0  0  0  0  0
    2.2030   -9.9780  -24.8790 C   0  0  0  0  0  0  0  0  0  0  0  0
    1.7460  -11.0170  -24.0230 C   0  0  0  0  0  3  0  0  0  0  0  0
    2.0450  -12.2180  -24.6230 C   0  0  0  0  0  3  0  0  0  0  0  0
    2.6830  -11.9500  -25.8050 N   0  0  0  0  0  0  0  0  0  0  0  0
    2.7820  -10.5900  -25.9940 C   0  0  0  0  0  0  0  0  0  0  0  0
    3.3230   -9.8620  -27.0610 C   0  0  0  0  0  3  0  0  0  0  0  0
    3.0220  -12.6470  -26.4550 H   0  0  0  0  0  0  0  0  0  0  0  0
   -1.6080   -6.8860  -26.9280 C   0  0  0  0  0  2  0  0  0  0  0  0
   -1.7000  -10.0140  -21.6610 C   0  0  0  0  0  0  0  0  0  0  0  0
   -1.7070   -8.9390  -20.7580 C   0  0  0  0  0  3  0  0  0  0  0  0
   -1.6800   -7.6420  -21.2410 C   0  0  0  0  0  3  0  0  0  0  0  0
   -1.6550   -7.4360  -22.6170 C   0  0  0  0  0  3  0  0  0  0  0  0
   -1.6660   -8.5240  -23.5360 C   0  0  0  0  0  0  0  0  0  0  0  0
   -1.6730   -8.3740  -24.9390 C   0  0  0  0  0  0  0  0  0  0  0  0
   -1.7000   -7.0990  -25.4950 N   0  0  0  0  0  0  0  0  0  0  0  0
   -1.6330   -9.4270  -25.7690 N   0  0  0  0  0  0  0  0  0  0  0  0
   -1.6420  -10.6360  -25.2030 C   0  0  0  0  0  3  0  0  0  0  0  0
   -1.6880  -10.8910  -23.8950 N   0  0  0  0  0  0  0  0  0  0  0  0
   -1.6760   -9.8430  -23.0520 C   0  0  0  0  0  0  0  0  0  0  0  0
   -2.2960   -6.4450  -25.0060 H   0  0  0  0  0  0  0  0  0  0  0  0
   -0.6560  -12.1730  -21.4750 N   0  0  0  0  0  0  0  0  0  0  0  0
   -1.6960  -11.3740  -21.0850 C   0  0  0  0  0  0  0  0  0  0  0  0
   -2.5900  -11.7810  -20.3600 O   0  0  0  0  0  0  0  0  0  0  0  0
   -0.6260  -13.1120  -21.1010 H   0  0  0  0  0  0  0  0  0  0  0  0
    0.1060  -11.8520  -22.0540 H   0  0  0  0  0  0  0  0  0  0  0  0
  1  2  1  0  0  0  0
  1 21  1  0  0  0  0
  3  2  2  0  0  0  0
  4  3  1  0  0  0  0
  5  4  2  0  0  0  0
  5  6  1  0  0  0  0
  6  1  2  0  0  0  0
  7  8  1  0  0  0  0
  7  5  1  0  0  0  0
  8 11  1  0  0  0  0
  9  8  2  0  0  0  0
 10  7  1  0  0  0  0
 11 12  1  0  0  0  0
 12 13  2  0  0  0  0
 14 13  1  0  0  0  0
 14 15  1  0  0  0  0
 16 15  2  0  0  0  0
 17 16  1  0  0  0  0
 18 17  1  0  0  0  0
 18 14  2  0  0  0  0
 19 11  2  0  0  0  0
 19 18  1  0  0  0  0
 20 17  1  0  0  0  0
 21 28  1  0  0  0  0
 22 35  1  0  0  0  0
 22 23  1  0  0  0  0
 24 23  2  0  0  0  0
 25 24  1  0  0  0  0
 26 32  1  0  0  0  0
 26 25  2  0  0  0  0
 27 26  1  0  0  0  0
 28 33  1  0  0  0  0
 28 27  1  0  0  0  0
 29 30  1  0  0  0  0
 29 27  2  0  0  0  0
 30 31  2  0  0  0  0
 31 32  1  0  0  0  0
 32 22  2  0  0  0  0
 34 37  1  0  0  0  0
 34 35  1  0  0  0  0
 35 36  2  0  0  0  0
 38 34  1  0  0  0  0
M  END
>  <minimizedAffinity>
-10.0830956

$$$$
