
 OpenBabel10152420033D

 38 42  0  0  0  0  0  0  0  0999 V2000
    2.8870  -10.5580  -26.4010 C   0  0  0  0  0  0  0  0  0  0  0  0
    2.7240  -11.2400  -27.6110 C   0  0  0  0  0  3  0  0  0  0  0  0
    2.0020  -12.4270  -27.6500 C   0  0  0  0  0  3  0  0  0  0  0  0
    1.4530  -12.9570  -26.4780 C   0  0  0  0  0  3  0  0  0  0  0  0
    1.6440  -12.3300  -25.2470 C   0  0  0  0  0  0  0  0  0  0  0  0
    2.3510  -11.1170  -25.2270 C   0  0  0  0  0  3  0  0  0  0  0  0
    1.1770  -12.7950  -24.0010 N   0  0  0  0  0  0  0  0  0  0  0  0
    0.2460  -12.3490  -23.0940 C   0  0  0  0  0  0  0  0  0  0  0  0
    0.0820  -12.9540  -22.0360 O   0  0  0  0  0  0  0  0  0  0  0  0
    1.6140  -13.6430  -23.6560 H   0  0  0  0  0  0  0  0  0  0  0  0
   -0.5670  -11.1520  -23.3340 C   0  0  0  0  0  0  0  0  0  0  0  0
   -0.8040  -10.7690  -24.6560 C   0  0  0  0  0  3  0  0  0  0  0  0
   -1.6180   -9.6660  -24.9290 C   0  0  0  0  0  3  0  0  0  0  0  0
   -2.1910   -8.9500  -23.8580 C   0  0  0  0  0  0  0  0  0  0  0  0
   -3.0720   -7.8370  -23.7780 C   0  0  0  0  0  3  0  0  0  0  0  0
   -3.2990   -7.5760  -22.4460 C   0  0  0  0  0  3  0  0  0  0  0  0
   -2.5750   -8.4770  -21.7120 N   0  0  0  0  0  0  0  0  0  0  0  0
   -1.8980   -9.3360  -22.5480 C   0  0  0  0  0  0  0  0  0  0  0  0
   -1.0670  -10.4240  -22.2460 C   0  0  0  0  0  3  0  0  0  0  0  0
   -2.5490   -8.5180  -20.7020 H   0  0  0  0  0  0  0  0  0  0  0  0
    3.5480   -9.1980  -26.3740 C   0  0  0  0  0  2  0  0  0  0  0  0
   -0.3710   -4.5100  -25.9230 C   0  0  0  0  0  0  0  0  0  0  0  0
   -0.7760   -4.6800  -24.5890 C   0  0  0  0  0  3  0  0  0  0  0  0
   -0.2590   -5.7270  -23.8470 C   0  0  0  0  0  3  0  0  0  0  0  0
    0.6600   -6.5860  -24.4430 C   0  0  0  0  0  3  0  0  0  0  0  0
    1.0860   -6.4060  -25.7900 C   0  0  0  0  0  0  0  0  0  0  0  0
    2.0380   -7.2260  -26.4340 C   0  0  0  0  0  0  0  0  0  0  0  0
    2.6390   -8.2650  -25.7320 N   0  0  0  0  0  0  0  0  0  0  0  0
    2.3740   -7.0510  -27.7210 N   0  0  0  0  0  0  0  0  0  0  0  0
    1.8040   -6.0240  -28.3550 C   0  0  0  0  0  3  0  0  0  0  0  0
    0.9360   -5.1590  -27.8280 N   0  0  0  0  0  0  0  0  0  0  0  0
    0.5520   -5.3560  -26.5530 C   0  0  0  0  0  0  0  0  0  0  0  0
    2.8680   -8.0410  -24.7730 H   0  0  0  0  0  0  0  0  0  0  0  0
   -0.1030   -2.5120  -27.2350 N   0  0  0  0  0  0  0  0  0  0  0  0
   -0.9840   -3.3960  -26.6730 C   0  0  0  0  0  0  0  0  0  0  0  0
   -2.1930   -3.2340  -26.7360 O   0  0  0  0  0  0  0  0  0  0  0  0
   -0.4910   -1.7350  -27.7520 H   0  0  0  0  0  0  0  0  0  0  0  0
    0.8990   -2.6360  -27.2160 H   0  0  0  0  0  0  0  0  0  0  0  0
  1 21  1  0  0  0  0
  1  6  1  0  0  0  0
  2  1  2  0  0  0  0
  3  2  1  0  0  0  0
  3  4  2  0  0  0  0
  4  5  1  0  0  0  0
  5  6  2  0  0  0  0
  5  7  1  0  0  0  0
  7 10  1  0  0  0  0
  7  8  1  0  0  0  0
  8  9  2  0  0  0  0
 11  8  1  0  0  0  0
 11 19  1  0  0  0  0
 12 11  2  0  0  0  0
 13 12  1  0  0  0  0
 13 14  2  0  0  0  0
 14 15  1  0  0  0  0
 14 18  1  0  0  0  0
 15 16  2  0  0  0  0
 16 17  1  0  0  0  0
 17 20  1  0  0  0  0
 18 19  2  0  0  0  0
 18 17  1  0  0  0  0
 21 28  1  0  0  0  0
 22 23  1  0  0  0  0
 23 24  2  0  0  0  0
 25 24  1  0  0  0  0
 26 25  2  0  0  0  0
 27 26  1  0  0  0  0
 27 28  1  0  0  0  0
 28 33  1  0  0  0  0
 29 27  2  0  0  0  0
 30 31  2  0  0  0  0
 30 29  1  0  0  0  0
 31 32  1  0  0  0  0
 32 22  2  0  0  0  0
 32 26  1  0  0  0  0
 34 38  1  0  0  0  0
 34 35  1  0  0  0  0
 35 22  1  0  0  0  0
 36 35  2  0  0  0  0
 37 34  1  0  0  0  0
M  END
>  <minimizedAffinity>
-9.14055729

$$$$
