
 OpenBabel10152420033D

 38 42  0  0  0  0  0  0  0  0999 V2000
   -0.2330   -6.1260  -25.5140 C   0  0  0  0  0  0  0  0  0  0  0  0
   -1.3250   -5.8960  -26.3580 C   0  0  0  0  0  3  0  0  0  0  0  0
   -1.1320   -5.7860  -27.7300 C   0  0  0  0  0  3  0  0  0  0  0  0
    0.1530   -5.8830  -28.2730 C   0  0  0  0  0  3  0  0  0  0  0  0
    1.2680   -6.0580  -27.4540 C   0  0  0  0  0  0  0  0  0  0  0  0
    1.0560   -6.1970  -26.0720 C   0  0  0  0  0  3  0  0  0  0  0  0
    2.6080   -6.1250  -27.8840 N   0  0  0  0  0  0  0  0  0  0  0  0
    3.5990   -7.0730  -27.8050 C   0  0  0  0  0  0  0  0  0  0  0  0
    4.7220   -6.8250  -28.2400 O   0  0  0  0  0  0  0  0  0  0  0  0
    2.9610   -5.2970  -28.3520 H   0  0  0  0  0  0  0  0  0  0  0  0
    3.3730   -8.3900  -27.1990 C   0  0  0  0  0  0  0  0  0  0  0  0
    2.7290   -8.4460  -25.9620 C   0  0  0  0  0  3  0  0  0  0  0  0
    2.4460   -9.6840  -25.3760 C   0  0  0  0  0  3  0  0  0  0  0  0
    2.8200  -10.8650  -26.0470 C   0  0  0  0  0  0  0  0  0  0  0  0
    2.6560  -12.2500  -25.7670 C   0  0  0  0  0  3  0  0  0  0  0  0
    3.2250  -12.9570  -26.8010 C   0  0  0  0  0  3  0  0  0  0  0  0
    3.7440  -12.0560  -27.6920 N   0  0  0  0  0  0  0  0  0  0  0  0
    3.5000  -10.7700  -27.2640 C   0  0  0  0  0  0  0  0  0  0  0  0
    3.8160   -9.5430  -27.8610 C   0  0  0  0  0  3  0  0  0  0  0  0
    4.2250  -12.2950  -28.5490 H   0  0  0  0  0  0  0  0  0  0  0  0
   -0.4490   -6.3890  -24.0400 C   0  0  0  0  0  2  0  0  0  0  0  0
   -1.6270  -11.8230  -21.4660 C   0  0  0  0  0  0  0  0  0  0  0  0
   -0.8840  -12.6470  -22.3270 C   0  0  0  0  0  3  0  0  0  0  0  0
   -0.1940  -12.0840  -23.3860 C   0  0  0  0  0  3  0  0  0  0  0  0
   -0.2490  -10.7050  -23.5670 C   0  0  0  0  0  3  0  0  0  0  0  0
   -0.9870   -9.8640  -22.6860 C   0  0  0  0  0  0  0  0  0  0  0  0
   -1.0510   -8.4580  -22.8040 C   0  0  0  0  0  0  0  0  0  0  0  0
   -0.3390   -7.8190  -23.8130 N   0  0  0  0  0  0  0  0  0  0  0  0
   -1.7990   -7.7080  -21.9810 N   0  0  0  0  0  0  0  0  0  0  0  0
   -2.4430   -8.3500  -21.0040 C   0  0  0  0  0  3  0  0  0  0  0  0
   -2.4080   -9.6630  -20.7710 N   0  0  0  0  0  0  0  0  0  0  0  0
   -1.7030  -10.4310  -21.6200 C   0  0  0  0  0  0  0  0  0  0  0  0
    0.5780   -8.2060  -23.9840 H   0  0  0  0  0  0  0  0  0  0  0  0
   -1.6330  -12.7850  -19.2620 N   0  0  0  0  0  0  0  0  0  0  0  0
   -2.3690  -12.4860  -20.3760 C   0  0  0  0  0  0  0  0  0  0  0  0
   -3.5430  -12.8060  -20.4820 O   0  0  0  0  0  0  0  0  0  0  0  0
   -2.1100  -13.2440  -18.4980 H   0  0  0  0  0  0  0  0  0  0  0  0
   -0.6680  -12.5110  -19.1420 H   0  0  0  0  0  0  0  0  0  0  0  0
  1 21  1  0  0  0  0
  2  1  2  0  0  0  0
  3  2  1  0  0  0  0
  4  3  2  0  0  0  0
  4  5  1  0  0  0  0
  5  6  2  0  0  0  0
  6  1  1  0  0  0  0
  7  8  1  0  0  0  0
  7  5  1  0  0  0  0
  8 11  1  0  0  0  0
  9  8  2  0  0  0  0
 10  7  1  0  0  0  0
 11 12  1  0  0  0  0
 12 13  2  0  0  0  0
 14 15  1  0  0  0  0
 14 13  1  0  0  0  0
 16 15  2  0  0  0  0
 17 18  1  0  0  0  0
 17 16  1  0  0  0  0
 18 14  2  0  0  0  0
 19 18  1  0  0  0  0
 19 11  2  0  0  0  0
 20 17  1  0  0  0  0
 21 28  1  0  0  0  0
 22 35  1  0  0  0  0
 23 22  2  0  0  0  0
 24 23  1  0  0  0  0
 25 24  2  0  0  0  0
 25 26  1  0  0  0  0
 26 32  1  0  0  0  0
 27 26  2  0  0  0  0
 27 29  1  0  0  0  0
 28 27  1  0  0  0  0
 29 30  2  0  0  0  0
 30 31  1  0  0  0  0
 32 22  1  0  0  0  0
 32 31  2  0  0  0  0
 33 28  1  0  0  0  0
 34 38  1  0  0  0  0
 34 37  1  0  0  0  0
 35 34  1  0  0  0  0
 36 35  2  0  0  0  0
M  END
>  <minimizedAffinity>
-10.3017998

$$$$
