REMARK  Name = 
REMARK  5 active torsions:
REMARK  status: ('A' for Active; 'I' for Inactive)
REMARK    1  A    between atoms: C_2  and  C_4
REMARK    2  A    between atoms: N_10  and  C_11
REMARK    3  A    between atoms: C_11  and  C_12
REMARK    4  A    between atoms: C_16  and  N_17
REMARK    5  A    between atoms: C_18  and  C_20
REMARK                            x       y       z     vdW  Elec       q    Type
REMARK                         _______ _______ _______ _____ _____    ______ ____
ROOT
ATOM      1  C   UNL     1       1.938   0.467  -9.115  0.00  0.00    -0.029 A 
ATOM      2  C   UNL     1       2.985  -0.347  -9.560  0.00  0.00    +0.005 A 
ATOM      3  C   UNL     1       4.126   0.226 -10.109  0.00  0.00    +0.002 A 
ATOM      4  C   UNL     1       4.226   1.615 -10.240  0.00  0.00    +0.023 A 
ATOM      5  C   UNL     1       3.177   2.450  -9.856  0.00  0.00    +0.034 A 
ATOM      6  C   UNL     1       2.042   1.860  -9.276  0.00  0.00    +0.028 A 
ENDROOT
BRANCH   5   7
ATOM      7  N   UNL     1       3.149   3.853  -9.982  0.00  0.00    -0.281 N 
ATOM      8  C   UNL     1       4.019   4.793 -10.481  0.00  0.00    +0.248 C 
ATOM      9  O   UNL     1       3.737   5.988 -10.410  0.00  0.00    -0.270 OA
ATOM     10  H   UNL     1       2.319   4.311  -9.621  0.00  0.00    +0.155 HD
BRANCH   8  11
ATOM     11  C   UNL     1       5.299   4.424 -11.095  0.00  0.00    +0.039 A 
ATOM     12  C   UNL     1       6.466   4.614 -10.353  0.00  0.00    +0.014 A 
ATOM     13  C   UNL     1       7.701   4.225 -10.881  0.00  0.00    +0.011 A 
ATOM     14  C   UNL     1       7.750   3.645 -12.164  0.00  0.00    -0.000 A 
ATOM     15  C   UNL     1       8.799   3.115 -12.965  0.00  0.00    +0.027 A 
ATOM     16  C   UNL     1       8.244   2.670 -14.143  0.00  0.00    +0.083 A 
ATOM     17  N   UNL     1       6.899   2.925 -14.097  0.00  0.00    -0.361 N 
ATOM     18  C   UNL     1       6.567   3.509 -12.895  0.00  0.00    +0.047 A 
ATOM     19  C   UNL     1       5.320   3.911 -12.399  0.00  0.00    +0.039 A 
ATOM     20  H   UNL     1       6.239   2.706 -14.831  0.00  0.00    +0.165 HD
ENDBRANCH   8  11
ENDBRANCH   5   7
BRANCH   1  21
ATOM     21  C   UNL     1       0.757  -0.138  -8.388  0.00  0.00    +0.138 C 
BRANCH  21  28
ATOM     22  C   UNL     1       0.750  -0.799  -2.297  0.00  0.00    +0.063 A 
ATOM     23  C   UNL     1       1.781  -1.744  -2.170  0.00  0.00    +0.015 A 
ATOM     24  C   UNL     1       2.420  -2.214  -3.304  0.00  0.00    +0.002 A 
ATOM     25  C   UNL     1       2.027  -1.729  -4.548  0.00  0.00    +0.013 A 
ATOM     26  C   UNL     1       0.994  -0.758  -4.679  0.00  0.00    +0.041 A 
ATOM     27  C   UNL     1       0.577  -0.209  -5.911  0.00  0.00    +0.130 A 
ATOM     28  N   UNL     1       1.211  -0.595  -7.087  0.00  0.00    -0.324 N 
ATOM     29  N   UNL     1      -0.435   0.668  -5.994  0.00  0.00    -0.220 NA
ATOM     30  C   UNL     1      -0.999   1.042  -4.844  0.00  0.00    +0.223 A 
ATOM     31  N   UNL     1      -0.649   0.628  -3.625  0.00  0.00    -0.235 NA
ATOM     32  C   UNL     1       0.330  -0.290  -3.534  0.00  0.00    +0.088 A 
ATOM     33  H   UNL     1       2.212  -0.707  -7.002  0.00  0.00    +0.148 HD
BRANCH  22  35
ATOM     34  N   UNL     1       0.885   0.290  -0.157  0.00  0.00    -0.325 N 
ATOM     35  C   UNL     1       0.084  -0.362  -1.054  0.00  0.00    +0.244 C 
ATOM     36  O   UNL     1      -1.085  -0.619  -0.812  0.00  0.00    -0.270 OA
ATOM     37  H   UNL     1       0.460   0.599   0.707  0.00  0.00    +0.145 HD
ATOM     38  H   UNL     1       1.847   0.534  -0.344  0.00  0.00    +0.145 HD
ENDBRANCH  22  35
ENDBRANCH  21  28
ENDBRANCH   1  21
TORSDOF 5
