
 OpenBabel10152419413D

 35 38  0  0  0  0  0  0  0  0999 V2000
   -2.7420   -8.4170  -24.9200 C   0  0  0  0  0  2  0  0  0  0  0  0
    1.7610  -12.3910  -23.8340 C   0  0  0  0  0  0  0  0  0  0  0  0
    1.2930  -12.9590  -22.6410 C   0  0  0  0  0  3  0  0  0  0  0  0
    0.0640  -12.5680  -22.1400 C   0  0  0  0  0  3  0  0  0  0  0  0
   -0.6770  -11.6130  -22.8330 C   0  0  0  0  0  3  0  0  0  0  0  0
   -0.2030  -11.0390  -24.0440 C   0  0  0  0  0  0  0  0  0  0  0  0
   -0.9010  -10.0600  -24.7840 C   0  0  0  0  0  0  0  0  0  0  0  0
   -2.1340   -9.5950  -24.3350 N   0  0  0  0  0  0  0  0  0  0  0  0
   -0.3880   -9.5160  -25.8990 N   0  0  0  0  0  0  0  0  0  0  0  0
    0.8000   -9.9690  -26.3020 C   0  0  0  0  0  3  0  0  0  0  0  0
    1.5280  -10.9120  -25.7010 N   0  0  0  0  0  0  0  0  0  0  0  0
    1.0430  -11.4330  -24.5600 C   0  0  0  0  0  0  0  0  0  0  0  0
   -2.7760  -10.3040  -24.0100 H   0  0  0  0  0  0  0  0  0  0  0  0
    4.0350  -12.9570  -23.3160 N   0  0  0  0  0  0  0  0  0  0  0  0
    3.0910  -12.8210  -24.2930 C   0  0  0  0  0  0  0  0  0  0  0  0
    3.3430  -12.9590  -25.4810 O   0  0  0  0  0  0  0  0  0  0  0  0
    4.9640  -13.2380  -23.5990 H   0  0  0  0  0  0  0  0  0  0  0  0
    3.8350  -12.8420  -22.3330 H   0  0  0  0  0  0  0  0  0  0  0  0
   -1.8090   -7.2340  -24.8080 C   0  0  0  0  0  0  0  0  0  0  0  0
   -1.3260   -6.8320  -23.5590 C   0  0  0  0  0  3  0  0  0  0  0  0
   -0.4910   -5.7220  -23.4540 C   0  0  0  0  0  3  0  0  0  0  0  0
   -0.1160   -5.0090  -24.5970 C   0  0  0  0  0  3  0  0  0  0  0  0
   -0.5510   -5.4160  -25.8580 C   0  0  0  0  0  0  0  0  0  0  0  0
   -1.4090   -6.5220  -25.9510 C   0  0  0  0  0  3  0  0  0  0  0  0
   -0.2470   -4.7510  -27.0600 N   0  0  0  0  0  0  0  0  0  0  0  0
    0.8440   -4.7800  -27.8950 C   0  0  0  0  0  0  0  0  0  0  0  0
    1.0000   -3.8830  -28.7230 O   0  0  0  0  0  0  0  0  0  0  0  0
   -0.9180   -4.0540  -27.3670 H   0  0  0  0  0  0  0  0  0  0  0  0
    1.8020   -5.9020  -27.8990 C   0  0  0  0  0  0  0  0  0  0  0  0
    2.3670   -6.2970  -29.1180 C   0  0  0  0  0  3  0  0  0  0  0  0
    3.2460   -7.3820  -29.1570 C   0  0  0  0  0  3  0  0  0  0  0  0
    3.5410   -8.0770  -27.9840 C   0  0  0  0  0  0  0  0  0  0  0  0
    4.6250   -9.4120  -28.0320 Cl  0  0  0  0  0  0  0  0  0  0  0  0
    2.9580   -7.7040  -26.7710 C   0  0  0  0  0  3  0  0  0  0  0  0
    2.0770   -6.6190  -26.7280 C   0  0  0  0  0  3  0  0  0  0  0  0
  1 19  1  0  0  0  0
  1  8  1  0  0  0  0
  2  3  1  0  0  0  0
  3  4  2  0  0  0  0
  5  4  1  0  0  0  0
  6  5  2  0  0  0  0
  7  8  1  0  0  0  0
  7  6  1  0  0  0  0
  8 13  1  0  0  0  0
  9  7  2  0  0  0  0
 10  9  1  0  0  0  0
 10 11  2  0  0  0  0
 11 12  1  0  0  0  0
 12  6  1  0  0  0  0
 12  2  2  0  0  0  0
 14 18  1  0  0  0  0
 15  2  1  0  0  0  0
 15 14  1  0  0  0  0
 16 15  2  0  0  0  0
 17 14  1  0  0  0  0
 19 20  1  0  0  0  0
 20 21  2  0  0  0  0
 22 21  1  0  0  0  0
 23 22  2  0  0  0  0
 24 23  1  0  0  0  0
 24 19  2  0  0  0  0
 25 23  1  0  0  0  0
 26 25  1  0  0  0  0
 27 26  2  0  0  0  0
 28 25  1  0  0  0  0
 29 26  1  0  0  0  0
 29 35  1  0  0  0  0
 30 29  2  0  0  0  0
 31 30  1  0  0  0  0
 31 32  2  0  0  0  0
 32 34  1  0  0  0  0
 33 32  1  0  0  0  0
 34 35  2  0  0  0  0
M  END
>  <minimizedAffinity>
-7.05614471

$$$$
