
 OpenBabel10152419413D

 35 38  0  0  0  0  0  0  0  0999 V2000
    4.7220   -8.1240  -28.6900 C   0  0  0  0  0  2  0  0  0  0  0  0
   -0.0380   -5.7280  -25.7150 C   0  0  0  0  0  0  0  0  0  0  0  0
   -0.4750   -4.8030  -26.6730 C   0  0  0  0  0  3  0  0  0  0  0  0
    0.1630   -4.7450  -27.9000 C   0  0  0  0  0  3  0  0  0  0  0  0
    1.2290   -5.6050  -28.1500 C   0  0  0  0  0  3  0  0  0  0  0  0
    1.6700   -6.5460  -27.1790 C   0  0  0  0  0  0  0  0  0  0  0  0
    2.7500   -7.4340  -27.3690 C   0  0  0  0  0  0  0  0  0  0  0  0
    3.4600   -7.4220  -28.5660 N   0  0  0  0  0  0  0  0  0  0  0  0
    3.1570   -8.2720  -26.4020 N   0  0  0  0  0  0  0  0  0  0  0  0
    2.4700   -8.2560  -25.2590 C   0  0  0  0  0  3  0  0  0  0  0  0
    1.4150   -7.4850  -24.9850 N   0  0  0  0  0  0  0  0  0  0  0  0
    1.0260   -6.6120  -25.9310 C   0  0  0  0  0  0  0  0  0  0  0  0
    2.9000   -7.3770  -29.4060 H   0  0  0  0  0  0  0  0  0  0  0  0
   -1.3080   -6.8940  -24.0450 N   0  0  0  0  0  0  0  0  0  0  0  0
   -0.7330   -5.7140  -24.4180 C   0  0  0  0  0  0  0  0  0  0  0  0
   -0.8540   -4.6830  -23.7700 O   0  0  0  0  0  0  0  0  0  0  0  0
   -1.8060   -6.9140  -23.1650 H   0  0  0  0  0  0  0  0  0  0  0  0
   -1.2150   -7.7470  -24.5760 H   0  0  0  0  0  0  0  0  0  0  0  0
    4.4870   -9.6140  -28.7790 C   0  0  0  0  0  0  0  0  0  0  0  0
    4.2110  -10.2130  -30.0110 C   0  0  0  0  0  3  0  0  0  0  0  0
    3.9640  -11.5820  -30.0860 C   0  0  0  0  0  3  0  0  0  0  0  0
    4.0050  -12.3720  -28.9340 C   0  0  0  0  0  3  0  0  0  0  0  0
    4.3200  -11.8050  -27.6980 C   0  0  0  0  0  0  0  0  0  0  0  0
    4.5450  -10.4220  -27.6300 C   0  0  0  0  0  3  0  0  0  0  0  0
    4.3610  -12.5110  -26.4830 N   0  0  0  0  0  0  0  0  0  0  0  0
    3.6040  -12.4480  -25.3390 C   0  0  0  0  0  0  0  0  0  0  0  0
    4.0250  -12.9590  -24.3010 O   0  0  0  0  0  0  0  0  0  0  0  0
    5.1330  -13.1610  -26.3700 H   0  0  0  0  0  0  0  0  0  0  0  0
    2.2490  -11.8630  -25.3220 C   0  0  0  0  0  0  0  0  0  0  0  0
    1.7260  -11.4180  -24.1020 C   0  0  0  0  0  3  0  0  0  0  0  0
    0.4310  -10.8970  -24.0510 C   0  0  0  0  0  3  0  0  0  0  0  0
   -0.3400  -10.8410  -25.2130 C   0  0  0  0  0  0  0  0  0  0  0  0
   -1.9340  -10.1980  -25.1500 Cl  0  0  0  0  0  0  0  0  0  0  0  0
    0.1680  -11.3110  -26.4260 C   0  0  0  0  0  3  0  0  0  0  0  0
    1.4630  -11.8330  -26.4810 C   0  0  0  0  0  3  0  0  0  0  0  0
  1  8  1  0  0  0  0
  2 15  1  0  0  0  0
  3  2  2  0  0  0  0
  4  3  1  0  0  0  0
  5  4  2  0  0  0  0
  5  6  1  0  0  0  0
  6 12  1  0  0  0  0
  7  6  2  0  0  0  0
  7  9  1  0  0  0  0
  8  7  1  0  0  0  0
  9 10  2  0  0  0  0
 10 11  1  0  0  0  0
 12  2  1  0  0  0  0
 12 11  2  0  0  0  0
 13  8  1  0  0  0  0
 14 17  1  0  0  0  0
 15 14  1  0  0  0  0
 15 16  2  0  0  0  0
 18 14  1  0  0  0  0
 19  1  1  0  0  0  0
 19 24  1  0  0  0  0
 20 19  2  0  0  0  0
 21 20  1  0  0  0  0
 21 22  2  0  0  0  0
 22 23  1  0  0  0  0
 23 24  2  0  0  0  0
 23 25  1  0  0  0  0
 25 28  1  0  0  0  0
 25 26  1  0  0  0  0
 26 29  1  0  0  0  0
 26 27  2  0  0  0  0
 29 30  1  0  0  0  0
 30 31  2  0  0  0  0
 32 33  1  0  0  0  0
 32 31  1  0  0  0  0
 34 32  2  0  0  0  0
 35 34  1  0  0  0  0
 35 29  2  0  0  0  0
M  END
>  <minimizedAffinity>
-8.71273804

$$$$
