
 OpenBabel10152419413D

 35 38  0  0  0  0  0  0  0  0999 V2000
    4.5410   -8.6560  -28.1960 C   0  0  0  0  0  2  0  0  0  0  0  0
   -0.1870   -5.3780  -26.1580 C   0  0  0  0  0  0  0  0  0  0  0  0
   -0.3200   -5.9280  -24.8750 C   0  0  0  0  0  3  0  0  0  0  0  0
    0.5840   -6.8850  -24.4500 C   0  0  0  0  0  3  0  0  0  0  0  0
    1.6030   -7.2840  -25.3120 C   0  0  0  0  0  3  0  0  0  0  0  0
    1.7390   -6.7250  -26.6120 C   0  0  0  0  0  0  0  0  0  0  0  0
    2.7420   -7.0960  -27.5330 C   0  0  0  0  0  0  0  0  0  0  0  0
    3.6760   -8.0700  -27.1920 N   0  0  0  0  0  0  0  0  0  0  0  0
    2.8000   -6.5710  -28.7670 N   0  0  0  0  0  0  0  0  0  0  0  0
    1.8870   -5.6490  -29.0760 C   0  0  0  0  0  3  0  0  0  0  0  0
    0.9200   -5.2000  -28.2730 N   0  0  0  0  0  0  0  0  0  0  0  0
    0.8260   -5.7510  -27.0500 C   0  0  0  0  0  0  0  0  0  0  0  0
    4.0720   -7.9900  -26.2660 H   0  0  0  0  0  0  0  0  0  0  0  0
   -0.9210   -3.0950  -26.2510 N   0  0  0  0  0  0  0  0  0  0  0  0
   -1.2020   -4.3940  -26.5640 C   0  0  0  0  0  0  0  0  0  0  0  0
   -2.2610   -4.7390  -27.0680 O   0  0  0  0  0  0  0  0  0  0  0  0
   -1.6050   -2.3940  -26.5030 H   0  0  0  0  0  0  0  0  0  0  0  0
   -0.0500   -2.8030  -25.8320 H   0  0  0  0  0  0  0  0  0  0  0  0
    4.4630  -10.1640  -28.1410 C   0  0  0  0  0  0  0  0  0  0  0  0
    4.5400  -10.9180  -29.3150 C   0  0  0  0  0  3  0  0  0  0  0  0
    4.4370  -12.3070  -29.2650 C   0  0  0  0  0  3  0  0  0  0  0  0
    4.2720  -12.9590  -28.0400 C   0  0  0  0  0  3  0  0  0  0  0  0
    4.2350  -12.2320  -26.8500 C   0  0  0  0  0  0  0  0  0  0  0  0
    4.3170  -10.8330  -26.9140 C   0  0  0  0  0  3  0  0  0  0  0  0
    4.0480  -12.7960  -25.5750 N   0  0  0  0  0  0  0  0  0  0  0  0
    3.1680  -12.5270  -24.5540 C   0  0  0  0  0  0  0  0  0  0  0  0
    3.4000  -12.9560  -23.4240 O   0  0  0  0  0  0  0  0  0  0  0  0
    4.7210  -13.5010  -25.2960 H   0  0  0  0  0  0  0  0  0  0  0  0
    1.8970  -11.8120  -24.7770 C   0  0  0  0  0  0  0  0  0  0  0  0
    1.4670  -10.8920  -23.8140 C   0  0  0  0  0  3  0  0  0  0  0  0
    0.2480  -10.2310  -23.9790 C   0  0  0  0  0  3  0  0  0  0  0  0
   -0.5430  -10.5070  -25.0960 C   0  0  0  0  0  0  0  0  0  0  0  0
   -2.0440   -9.6910  -25.3000 Cl  0  0  0  0  0  0  0  0  0  0  0  0
   -0.1310  -11.4460  -26.0440 C   0  0  0  0  0  3  0  0  0  0  0  0
    1.0880  -12.1090  -25.8810 C   0  0  0  0  0  3  0  0  0  0  0  0
  1 19  1  0  0  0  0
  1  8  1  0  0  0  0
  2  3  1  0  0  0  0
  3  4  2  0  0  0  0
  5  4  1  0  0  0  0
  6  5  2  0  0  0  0
  7  8  1  0  0  0  0
  7  6  1  0  0  0  0
  8 13  1  0  0  0  0
  9  7  2  0  0  0  0
 10  9  1  0  0  0  0
 10 11  2  0  0  0  0
 11 12  1  0  0  0  0
 12  6  1  0  0  0  0
 12  2  2  0  0  0  0
 14 18  1  0  0  0  0
 15 14  1  0  0  0  0
 15  2  1  0  0  0  0
 16 15  2  0  0  0  0
 17 14  1  0  0  0  0
 19 24  1  0  0  0  0
 20 21  1  0  0  0  0
 20 19  2  0  0  0  0
 21 22  2  0  0  0  0
 22 23  1  0  0  0  0
 23 25  1  0  0  0  0
 24 23  2  0  0  0  0
 25 28  1  0  0  0  0
 25 26  1  0  0  0  0
 26 27  2  0  0  0  0
 29 26  1  0  0  0  0
 29 30  1  0  0  0  0
 31 30  2  0  0  0  0
 32 31  1  0  0  0  0
 33 32  1  0  0  0  0
 34 35  1  0  0  0  0
 34 32  2  0  0  0  0
 35 29  2  0  0  0  0
M  END
>  <minimizedAffinity>
-7.88102007

$$$$
