
 OpenBabel10152419413D

 35 38  0  0  0  0  0  0  0  0999 V2000
   -1.6390   -6.6370  -26.0710 C   0  0  0  0  0  2  0  0  0  0  0  0
   -0.9880  -11.8940  -23.0400 C   0  0  0  0  0  0  0  0  0  0  0  0
   -0.6630  -12.7440  -24.1070 C   0  0  0  0  0  3  0  0  0  0  0  0
   -0.5230  -12.2140  -25.3770 C   0  0  0  0  0  3  0  0  0  0  0  0
   -0.7170  -10.8470  -25.5660 C   0  0  0  0  0  3  0  0  0  0  0  0
   -1.0440   -9.9850  -24.4830 C   0  0  0  0  0  0  0  0  0  0  0  0
   -1.2640   -8.5970  -24.6140 C   0  0  0  0  0  0  0  0  0  0  0  0
   -1.1660   -7.9900  -25.8630 N   0  0  0  0  0  0  0  0  0  0  0  0
   -1.6160   -7.8350  -23.5670 N   0  0  0  0  0  0  0  0  0  0  0  0
   -1.7150   -8.4400  -22.3830 C   0  0  0  0  0  3  0  0  0  0  0  0
   -1.4970   -9.7350  -22.1410 N   0  0  0  0  0  0  0  0  0  0  0  0
   -1.1850  -10.5160  -23.1900 C   0  0  0  0  0  0  0  0  0  0  0  0
   -0.3720   -8.2680  -26.4230 H   0  0  0  0  0  0  0  0  0  0  0  0
   -2.4280  -12.5040  -21.2190 N   0  0  0  0  0  0  0  0  0  0  0  0
   -1.1590  -12.5250  -21.7220 C   0  0  0  0  0  0  0  0  0  0  0  0
   -0.2040  -12.9570  -21.0920 O   0  0  0  0  0  0  0  0  0  0  0  0
   -2.5770  -12.9170  -20.3080 H   0  0  0  0  0  0  0  0  0  0  0  0
   -3.2200  -12.1460  -21.7320 H   0  0  0  0  0  0  0  0  0  0  0  0
   -0.5810   -5.8120  -26.7650 C   0  0  0  0  0  0  0  0  0  0  0  0
   -0.6130   -4.4160  -26.6900 C   0  0  0  0  0  3  0  0  0  0  0  0
    0.3460   -3.6550  -27.3560 C   0  0  0  0  0  3  0  0  0  0  0  0
    1.3560   -4.2800  -28.0930 C   0  0  0  0  0  3  0  0  0  0  0  0
    1.4340   -5.6720  -28.1480 C   0  0  0  0  0  0  0  0  0  0  0  0
    0.4510   -6.4280  -27.4920 C   0  0  0  0  0  3  0  0  0  0  0  0
    2.3960   -6.3890  -28.8820 N   0  0  0  0  0  0  0  0  0  0  0  0
    3.2750   -7.3890  -28.5420 C   0  0  0  0  0  0  0  0  0  0  0  0
    4.2240   -7.6440  -29.2850 O   0  0  0  0  0  0  0  0  0  0  0  0
    2.5430   -6.0900  -29.8400 H   0  0  0  0  0  0  0  0  0  0  0  0
    3.0790   -8.2410  -27.3540 C   0  0  0  0  0  0  0  0  0  0  0  0
    3.2260   -9.6270  -27.4900 C   0  0  0  0  0  3  0  0  0  0  0  0
    3.0060  -10.4610  -26.3910 C   0  0  0  0  0  3  0  0  0  0  0  0
    2.6220   -9.9080  -25.1690 C   0  0  0  0  0  0  0  0  0  0  0  0
    2.3520  -10.9340  -23.8150 Cl  0  0  0  0  0  0  0  0  0  0  0  0
    2.4460   -8.5290  -25.0370 C   0  0  0  0  0  3  0  0  0  0  0  0
    2.6640   -7.6920  -26.1340 C   0  0  0  0  0  3  0  0  0  0  0  0
  1  8  1  0  0  0  0
  2 15  1  0  0  0  0
  3  2  2  0  0  0  0
  4  3  1  0  0  0  0
  5  4  2  0  0  0  0
  5  6  1  0  0  0  0
  6 12  1  0  0  0  0
  7  6  2  0  0  0  0
  7  9  1  0  0  0  0
  8  7  1  0  0  0  0
  9 10  2  0  0  0  0
 10 11  1  0  0  0  0
 12  2  1  0  0  0  0
 12 11  2  0  0  0  0
 13  8  1  0  0  0  0
 14 17  1  0  0  0  0
 15 14  1  0  0  0  0
 15 16  2  0  0  0  0
 18 14  1  0  0  0  0
 19 20  1  0  0  0  0
 19  1  1  0  0  0  0
 21 20  2  0  0  0  0
 22 21  1  0  0  0  0
 23 22  2  0  0  0  0
 23 24  1  0  0  0  0
 24 19  2  0  0  0  0
 25 26  1  0  0  0  0
 25 23  1  0  0  0  0
 26 29  1  0  0  0  0
 27 26  2  0  0  0  0
 28 25  1  0  0  0  0
 29 35  1  0  0  0  0
 30 29  2  0  0  0  0
 30 31  1  0  0  0  0
 31 32  2  0  0  0  0
 32 34  1  0  0  0  0
 32 33  1  0  0  0  0
 35 34  2  0  0  0  0
M  END
>  <minimizedAffinity>
-9.59933281

$$$$
