REMARK  Name = 
REMARK  5 active torsions:
REMARK  status: ('A' for Active; 'I' for Inactive)
REMARK    1  A    between atoms: C_2  and  C_4
REMARK    2  A    between atoms: N_10  and  C_11
REMARK    3  A    between atoms: C_11  and  C_12
REMARK    4  A    between atoms: C_16  and  N_17
REMARK    5  A    between atoms: C_18  and  C_20
REMARK                            x       y       z     vdW  Elec       q    Type
REMARK                         _______ _______ _______ _____ _____    ______ ____
ROOT
ATOM      1  C   UNL     1       1.015   4.998   6.925  0.00  0.00    +0.138 C 
ENDROOT
BRANCH   1   8
ATOM      2  C   UNL     1       1.260   2.091   1.564  0.00  0.00    +0.063 A 
ATOM      3  C   UNL     1       2.309   2.798   0.959  0.00  0.00    +0.015 A 
ATOM      4  C   UNL     1       2.965   3.783   1.676  0.00  0.00    +0.002 A 
ATOM      5  C   UNL     1       2.562   4.052   2.982  0.00  0.00    +0.013 A 
ATOM      6  C   UNL     1       1.500   3.333   3.596  0.00  0.00    +0.041 A 
ATOM      7  C   UNL     1       1.039   3.568   4.909  0.00  0.00    +0.130 A 
ATOM      8  N   UNL     1       1.630   4.558   5.689  0.00  0.00    -0.324 N 
ATOM      9  N   UNL     1       0.001   2.892   5.427  0.00  0.00    -0.220 NA
ATOM     10  C   UNL     1      -0.557   1.957   4.657  0.00  0.00    +0.223 A 
ATOM     11  N   UNL     1      -0.181   1.630   3.419  0.00  0.00    -0.235 NA
ATOM     12  C   UNL     1       0.830   2.330   2.875  0.00  0.00    +0.088 A 
ATOM     13  H   UNL     1       2.640   4.586   5.668  0.00  0.00    +0.148 HD
BRANCH   2  15
ATOM     14  N   UNL     1       1.118  -0.170   0.771  0.00  0.00    -0.325 N 
ATOM     15  C   UNL     1       0.579   1.084   0.736  0.00  0.00    +0.244 C 
ATOM     16  O   UNL     1      -0.353   1.384   0.003  0.00  0.00    -0.270 OA
ATOM     17  H   UNL     1       0.682  -0.883   0.202  0.00  0.00    +0.145 HD
ATOM     18  H   UNL     1       1.889  -0.424   1.371  0.00  0.00    +0.145 HD
ENDBRANCH   2  15
ENDBRANCH   1   8
BRANCH   1  19
ATOM     19  C   UNL     1       1.832   4.540   8.110  0.00  0.00    -0.029 A 
ATOM     20  C   UNL     1       1.725   3.226   8.576  0.00  0.00    +0.005 A 
ATOM     21  C   UNL     1       2.456   2.814   9.688  0.00  0.00    +0.002 A 
ATOM     22  C   UNL     1       3.314   3.705  10.339  0.00  0.00    +0.023 A 
ATOM     23  C   UNL     1       3.470   5.009   9.868  0.00  0.00    +0.034 A 
ATOM     24  C   UNL     1       2.713   5.420   8.761  0.00  0.00    +0.028 A 
BRANCH  23  25
ATOM     25  N   UNL     1       4.289   5.982  10.469  0.00  0.00    -0.281 N 
ATOM     26  C   UNL     1       5.264   5.916  11.435  0.00  0.00    +0.248 C 
ATOM     27  O   UNL     1       5.624   6.945  12.007  0.00  0.00    -0.270 OA
ATOM     28  H   UNL     1       4.105   6.945  10.207  0.00  0.00    +0.155 HD
BRANCH  26  29
ATOM     29  C   UNL     1       5.969   4.661  11.758  0.00  0.00    +0.037 A 
ATOM     30  C   UNL     1       6.137   4.313  13.104  0.00  0.00    +0.014 A 
ATOM     31  C   UNL     1       6.836   3.151  13.439  0.00  0.00    +0.021 A 
ATOM     32  C   UNL     1       7.379   2.354  12.430  0.00  0.00    +0.041 A 
ATOM     33 CL   UNL     1       8.238   0.922  12.843  0.00  0.00    -0.084 Cl
ATOM     34  C   UNL     1       7.238   2.713  11.088  0.00  0.00    +0.021 A 
ATOM     35  C   UNL     1       6.540   3.875  10.749  0.00  0.00    +0.014 A 
ENDBRANCH  26  29
ENDBRANCH  23  25
ENDBRANCH   1  19
TORSDOF 5
