
 OpenBabel10152418183D

 39 42  0  0  1  0  0  0  0  0999 V2000
    0.4180   -6.1650  -27.1500 C   0  0  0  0  0  0  0  0  0  0  0  0
    0.1590   -5.6660  -25.8680 C   0  0  0  0  0  3  0  0  0  0  0  0
   -0.2340   -6.5310  -24.8550 C   0  0  0  0  0  3  0  0  0  0  0  0
   -0.4040   -7.8920  -25.1200 C   0  0  0  0  0  3  0  0  0  0  0  0
   -0.2810   -8.3980  -26.4130 C   0  0  0  0  0  0  0  0  0  0  0  0
    0.1150   -7.5130  -27.4250 C   0  0  0  0  0  3  0  0  0  0  0  0
   -0.4350   -9.7500  -26.7920 N   0  0  0  0  0  0  0  0  0  0  0  0
   -0.5600  -10.9270  -26.0910 C   0  0  0  0  0  0  0  0  0  0  0  0
   -0.5220  -12.0040  -26.6810 O   0  0  0  0  0  0  0  0  0  0  0  0
   -0.4000   -9.9380  -27.7880 H   0  0  0  0  0  0  0  0  0  0  0  0
   -0.7500  -10.9370  -24.6440 C   0  0  0  0  0  0  0  0  0  0  0  0
   -0.1250  -11.8840  -23.8350 C   0  0  0  0  0  3  0  0  0  0  0  0
   -0.4830  -11.9540  -22.4890 C   0  0  0  0  0  3  0  0  0  0  0  0
   -1.4430  -11.0660  -21.9890 C   0  0  0  0  0  0  0  0  0  0  0  0
   -1.9810  -10.0770  -22.7660 N   0  0  0  0  0  0  0  0  0  0  0  0
   -1.6220  -10.0280  -24.0710 C   0  0  0  0  0  3  0  0  0  0  0  0
   -1.9220  -11.2160  -20.5500 C   0  0  0  0  0  0  0  0  0  0  0  0
   -0.9810  -11.7600  -19.7280 F   0  0  0  0  0  0  0  0  0  0  0  0
   -2.3030  -10.0410  -19.9730 F   0  0  0  0  0  0  0  0  0  0  0  0
   -3.0130  -12.0350  -20.4450 F   0  0  0  0  0  0  0  0  0  0  0  0
    0.8720   -3.8420  -27.9930 C   0  0  0  0  0  1  0  0  0  0  0  0
    1.1640   -5.3340  -28.1880 C   0  0  1  0  0  3  0  0  0  0  0  0
    2.6280   -5.5470  -28.2100 N   0  0  0  0  0  0  0  0  0  0  0  0
    3.1310   -4.8920  -27.6160 H   0  0  0  0  0  0  0  0  0  0  0  0
    3.2320   -6.7840  -28.0480 C   0  0  0  0  0  0  0  0  0  0  0  0
    3.3270   -7.1390  -26.7570 N   0  0  0  0  0  0  0  0  0  0  0  0
    3.6790   -8.4000  -26.5190 C   0  0  0  0  0  3  0  0  0  0  0  0
    3.9210   -9.3410  -27.4400 N   0  0  0  0  0  0  0  0  0  0  0  0
    3.8890   -8.9740  -28.7410 C   0  0  0  0  0  0  0  0  0  0  0  0
    4.1140   -9.8900  -29.7900 C   0  0  0  0  0  0  0  0  0  0  0  0
    4.1380   -9.4750  -31.1360 C   0  0  0  0  0  3  0  0  0  0  0  0
    3.9580   -8.1410  -31.4650 C   0  0  0  0  0  3  0  0  0  0  0  0
    3.7010   -7.2300  -30.4500 C   0  0  0  0  0  3  0  0  0  0  0  0
    3.6100   -7.6400  -29.0970 C   0  0  0  0  0  0  0  0  0  0  0  0
    4.3160  -11.3570  -29.5680 C   0  0  0  0  0  0  0  0  0  0  0  0
    3.7400  -11.9360  -28.4760 N   0  0  0  0  0  0  0  0  0  0  0  0
    4.9730  -12.0370  -30.3460 O   0  0  0  0  0  0  0  0  0  0  0  0
    3.8640  -12.9270  -28.3250 H   0  0  0  0  0  0  0  0  0  0  0  0
    3.1870  -11.3870  -27.8260 H   0  0  0  0  0  0  0  0  0  0  0  0
  1  2  1  0  0  0  0
  2  3  2  0  0  0  0
  4  3  1  0  0  0  0
  5  4  2  0  0  0  0
  6  1  2  0  0  0  0
  6  5  1  0  0  0  0
  7  5  1  0  0  0  0
  7  8  1  0  0  0  0
  8 11  1  0  0  0  0
  9  8  2  0  0  0  0
 10  7  1  0  0  0  0
 11 16  2  0  0  0  0
 11 12  1  0  0  0  0
 12 13  2  0  0  0  0
 13 14  1  0  0  0  0
 14 17  1  0  0  0  0
 15 14  2  0  0  0  0
 16 15  1  0  0  0  0
 17 20  1  0  0  0  0
 17 19  1  0  0  0  0
 17 18  1  0  0  0  0
 22 21  1  1  0  0  0
 22  1  1  0  0  0  0
 23 22  1  0  0  0  0
 23 25  1  0  0  0  0
 23 24  1  0  0  0  0
 25 26  1  0  0  0  0
 26 27  2  0  0  0  0
 28 27  1  0  0  0  0
 29 28  2  0  0  0  0
 30 35  1  0  0  0  0
 30 29  1  0  0  0  0
 31 30  2  0  0  0  0
 32 31  1  0  0  0  0
 32 33  2  0  0  0  0
 33 34  1  0  0  0  0
 34 29  1  0  0  0  0
 34 25  2  0  0  0  0
 35 36  1  0  0  0  0
 36 38  1  0  0  0  0
 36 39  1  0  0  0  0
 37 35  2  0  0  0  0
M  END
>  <minimizedAffinity>
-7.11711693

$$$$
