
 OpenBabel10152418183D

 39 42  0  0  1  0  0  0  0  0999 V2000
    0.1930   -5.4350  -27.4180 C   0  0  0  0  0  0  0  0  0  0  0  0
   -0.1450   -4.7510  -26.2430 C   0  0  0  0  0  3  0  0  0  0  0  0
   -0.7010   -5.4420  -25.1760 C   0  0  0  0  0  3  0  0  0  0  0  0
   -0.9560   -6.8110  -25.2810 C   0  0  0  0  0  3  0  0  0  0  0  0
   -0.7530   -7.4950  -26.4790 C   0  0  0  0  0  0  0  0  0  0  0  0
   -0.1920   -6.7830  -27.5490 C   0  0  0  0  0  3  0  0  0  0  0  0
   -0.9800   -8.8710  -26.6970 N   0  0  0  0  0  0  0  0  0  0  0  0
   -1.2520   -9.9340  -25.8670 C   0  0  0  0  0  0  0  0  0  0  0  0
   -1.2510  -11.0800  -26.3100 O   0  0  0  0  0  0  0  0  0  0  0  0
   -0.8800   -9.1910  -27.6540 H   0  0  0  0  0  0  0  0  0  0  0  0
   -1.5590   -9.7400  -24.4530 C   0  0  0  0  0  0  0  0  0  0  0  0
   -2.5720   -8.8780  -24.0400 C   0  0  0  0  0  3  0  0  0  0  0  0
   -2.6980   -8.5990  -22.6790 C   0  0  0  0  0  3  0  0  0  0  0  0
   -1.8190   -9.2030  -21.7720 C   0  0  0  0  0  0  0  0  0  0  0  0
   -0.8900  -10.1220  -22.1760 N   0  0  0  0  0  0  0  0  0  0  0  0
   -0.7810  -10.3760  -23.5010 C   0  0  0  0  0  3  0  0  0  0  0  0
   -1.8790   -8.8110  -20.3000 C   0  0  0  0  0  0  0  0  0  0  0  0
   -2.6510   -9.6510  -19.5550 F   0  0  0  0  0  0  0  0  0  0  0  0
   -0.6590   -8.7710  -19.6940 F   0  0  0  0  0  0  0  0  0  0  0  0
   -2.4110   -7.5650  -20.1130 F   0  0  0  0  0  0  0  0  0  0  0  0
    1.1670   -3.2850  -28.2790 C   0  0  0  0  0  1  0  0  0  0  0  0
    1.0990   -4.8050  -28.4700 C   0  0  1  0  0  3  0  0  0  0  0  0
    2.4710   -5.3550  -28.5080 N   0  0  0  0  0  0  0  0  0  0  0  0
    3.0000   -5.1570  -27.6620 H   0  0  0  0  0  0  0  0  0  0  0  0
    2.7730   -6.6570  -28.8760 C   0  0  0  0  0  0  0  0  0  0  0  0
    3.0150   -6.7720  -30.1900 N   0  0  0  0  0  0  0  0  0  0  0  0
    3.5350   -7.9290  -30.5930 C   0  0  0  0  0  3  0  0  0  0  0  0
    3.8550   -8.9660  -29.8110 N   0  0  0  0  0  0  0  0  0  0  0  0
    3.5560   -8.8820  -28.4940 C   0  0  0  0  0  0  0  0  0  0  0  0
    3.8660   -9.9120  -27.5820 C   0  0  0  0  0  0  0  0  0  0  0  0
    3.4890   -9.8300  -26.2270 C   0  0  0  0  0  3  0  0  0  0  0  0
    2.7830   -8.7350  -25.7570 C   0  0  0  0  0  3  0  0  0  0  0  0
    2.4990   -7.6950  -26.6320 C   0  0  0  0  0  3  0  0  0  0  0  0
    2.9250   -7.7320  -27.9820 C   0  0  0  0  0  0  0  0  0  0  0  0
    4.6300  -11.1420  -27.9620 C   0  0  0  0  0  0  0  0  0  0  0  0
    4.9560  -11.3280  -29.2720 N   0  0  0  0  0  0  0  0  0  0  0  0
    4.9680  -11.9690  -27.1240 O   0  0  0  0  0  0  0  0  0  0  0  0
    5.4790  -12.1510  -29.5350 H   0  0  0  0  0  0  0  0  0  0  0  0
    4.6880  -10.6480  -29.9780 H   0  0  0  0  0  0  0  0  0  0  0  0
  1  2  1  0  0  0  0
  2  3  2  0  0  0  0
  4  3  1  0  0  0  0
  5  4  2  0  0  0  0
  6  1  2  0  0  0  0
  6  5  1  0  0  0  0
  7  5  1  0  0  0  0
  7  8  1  0  0  0  0
  8 11  1  0  0  0  0
  9  8  2  0  0  0  0
 10  7  1  0  0  0  0
 11 12  2  0  0  0  0
 11 16  1  0  0  0  0
 12 13  1  0  0  0  0
 13 14  2  0  0  0  0
 14 17  1  0  0  0  0
 15 14  1  0  0  0  0
 16 15  2  0  0  0  0
 17 20  1  0  0  0  0
 17 19  1  0  0  0  0
 17 18  1  0  0  0  0
 22 21  1  1  0  0  0
 22  1  1  0  0  0  0
 23 22  1  0  0  0  0
 23 24  1  0  0  0  0
 25 23  1  0  0  0  0
 25 34  1  0  0  0  0
 26 25  2  0  0  0  0
 27 26  1  0  0  0  0
 27 28  2  0  0  0  0
 28 29  1  0  0  0  0
 29 34  2  0  0  0  0
 29 30  1  0  0  0  0
 30 31  2  0  0  0  0
 31 32  1  0  0  0  0
 33 32  2  0  0  0  0
 34 33  1  0  0  0  0
 35 30  1  0  0  0  0
 35 37  2  0  0  0  0
 36 35  1  0  0  0  0
 38 36  1  0  0  0  0
 39 36  1  0  0  0  0
M  END
>  <minimizedAffinity>
-6.8587203

$$$$
