REMARK  Name = 
REMARK  8 active torsions:
REMARK  status: ('A' for Active; 'I' for Inactive)
REMARK    1  A    between atoms: C_1  and  C_2
REMARK    2  A    between atoms: C_2  and  N_3
REMARK    3  A    between atoms: C_2  and  C_17
REMARK    4  A    between atoms: N_3  and  C_4
REMARK    5  A    between atoms: C_9  and  C_10
REMARK    6  A    between atoms: C_21  and  N_22
REMARK    7  A    between atoms: C_23  and  C_25
REMARK    8  A    between atoms: C_28  and  C_29
REMARK                            x       y       z     vdW  Elec       q    Type
REMARK                         _______ _______ _______ _____ _____    ______ ____
ROOT
ATOM      1  C   UNL     1      -0.896  -0.570   1.109  0.00  0.00    -0.026 A 
ATOM      2  C   UNL     1      -1.458   0.708   1.220  0.00  0.00    +0.005 A 
ATOM      3  C   UNL     1      -2.829   0.849   1.385  0.00  0.00    +0.002 A 
ATOM      4  C   UNL     1      -3.654  -0.278   1.407  0.00  0.00    +0.023 A 
ATOM      5  C   UNL     1      -3.143  -1.553   1.169  0.00  0.00    +0.034 A 
ATOM      6  C   UNL     1      -1.757  -1.680   1.003  0.00  0.00    +0.028 A 
ENDROOT
BRANCH   5   7
ATOM      7  N   UNL     1      -3.884  -2.755   1.164  0.00  0.00    -0.281 N 
ATOM      8  C   UNL     1      -5.219  -3.051   1.314  0.00  0.00    +0.250 C 
ATOM      9  O   UNL     1      -5.584  -4.219   1.427  0.00  0.00    -0.270 OA
ATOM     10  H   UNL     1      -3.343  -3.609   1.085  0.00  0.00    +0.155 HD
BRANCH   8  11
ATOM     11  C   UNL     1      -6.236  -2.004   1.334  0.00  0.00    +0.055 A 
ATOM     12  C   UNL     1      -6.504  -1.229   0.208  0.00  0.00    +0.016 A 
ATOM     13  C   UNL     1      -7.355  -0.132   0.339  0.00  0.00    +0.033 A 
ATOM     14  C   UNL     1      -7.925   0.147   1.587  0.00  0.00    +0.144 A 
ATOM     15  N   UNL     1      -7.733  -0.674   2.664  0.00  0.00    -0.250 NA
ATOM     16  C   UNL     1      -6.901  -1.732   2.517  0.00  0.00    +0.124 A 
BRANCH  14  17
ATOM     17  C   UNL     1      -8.761   1.410   1.761  0.00  0.00    +0.434 C 
ATOM     18  F   UNL     1     -10.096   1.193   1.600  0.00  0.00    -0.164 F 
ATOM     19  F   UNL     1      -8.612   2.002   2.980  0.00  0.00    -0.164 F 
ATOM     20  F   UNL     1      -8.437   2.380   0.852  0.00  0.00    -0.164 F 
ENDBRANCH  14  17
ENDBRANCH   8  11
ENDBRANCH   5   7
BRANCH   1  22
ATOM     21  C   UNL     1       1.370  -0.113   0.124  0.00  0.00    +0.033 C 
ATOM     22  C   UNL     1       0.604  -0.793   1.265  0.00  0.00    +0.099 C 
BRANCH  22  23
ATOM     23  N   UNL     1       1.160  -0.347   2.561  0.00  0.00    -0.322 N 
ATOM     24  H   UNL     1       1.913   0.329   2.456  0.00  0.00    +0.148 HD
BRANCH  23  25
ATOM     25  C   UNL     1       0.386   0.075   3.631  0.00  0.00    +0.130 A 
ATOM     26  N   UNL     1       0.636   1.349   3.969  0.00  0.00    -0.220 NA
ATOM     27  C   UNL     1      -0.215   1.908   4.826  0.00  0.00    +0.223 A 
ATOM     28  N   UNL     1      -1.298   1.327   5.356  0.00  0.00    -0.235 NA
ATOM     29  C   UNL     1      -1.521   0.024   5.069  0.00  0.00    +0.088 A 
ATOM     30  C   UNL     1      -2.641  -0.677   5.563  0.00  0.00    +0.063 A 
ATOM     31  C   UNL     1      -2.821  -2.050   5.303  0.00  0.00    +0.015 A 
ATOM     32  C   UNL     1      -1.885  -2.756   4.565  0.00  0.00    +0.002 A 
ATOM     33  C   UNL     1      -0.794  -2.076   4.041  0.00  0.00    +0.013 A 
ATOM     34  C   UNL     1      -0.630  -0.683   4.239  0.00  0.00    +0.041 A 
BRANCH  30  35
ATOM     35  C   UNL     1      -3.726  -0.029   6.366  0.00  0.00    +0.244 C 
ATOM     36  N   UNL     1      -3.592   1.286   6.700  0.00  0.00    -0.325 N 
ATOM     37  O   UNL     1      -4.721  -0.651   6.716  0.00  0.00    -0.270 OA
ATOM     38  H   UNL     1      -4.324   1.732   7.234  0.00  0.00    +0.145 HD
ATOM     39  H   UNL     1      -2.776   1.817   6.412  0.00  0.00    +0.145 HD
ENDBRANCH  30  35
ENDBRANCH  23  25
ENDBRANCH  22  23
ENDBRANCH   1  22
TORSDOF 7
