
 OpenBabel10152418113D

 29 32  0  0  0  0  0  0  0  0999 V2000
    0.9950   -6.0150  -26.8860 C   0  0  0  0  0  0  0  0  0  0  0  0
    0.3090   -6.4080  -25.7920 N   0  0  0  0  0  0  0  0  0  0  0  0
   -0.6600   -5.5970  -25.3480 C   0  0  0  0  0  0  0  0  0  0  0  0
   -1.4980   -5.9760  -24.3040 N   0  0  0  0  0  0  0  0  0  0  0  0
   -0.9550   -4.4210  -25.9270 N   0  0  0  0  0  0  0  0  0  0  0  0
   -0.2430   -4.0690  -27.0220 C   0  0  0  0  0  3  0  0  0  0  0  0
    0.7460   -4.8460  -27.5710 C   0  0  0  0  0  0  0  0  0  0  0  0
    1.5560   -4.3650  -29.0010 Cl  0  0  0  0  0  0  0  0  0  0  0  0
   -2.2550   -5.3170  -24.2070 H   0  0  0  0  0  0  0  0  0  0  0  0
   -1.5020   -7.0980  -23.4720 C   0  0  0  0  0  0  0  0  0  0  0  0
   -1.3830   -6.9150  -22.0860 C   0  0  0  0  0  3  0  0  0  0  0  0
   -1.4780   -7.9960  -21.1990 C   0  0  0  0  0  3  0  0  0  0  0  0
   -1.6850   -9.2930  -21.6800 C   0  0  0  0  0  0  0  0  0  0  0  0
   -1.7770   -9.4840  -23.0620 C   0  0  0  0  0  3  0  0  0  0  0  0
   -1.7080   -8.3980  -23.9420 C   0  0  0  0  0  3  0  0  0  0  0  0
   -1.8150  -10.4340  -20.7860 C   0  0  0  0  0  0  0  0  0  0  0  0
   -2.9200  -11.0410  -20.3990 N   0  0  0  0  0  0  0  0  0  0  0  0
   -2.5370  -12.0390  -19.5330 N   0  0  0  0  0  0  0  0  0  0  0  0
   -1.2240  -12.0390  -19.3630 N   0  0  0  0  0  0  0  0  0  0  0  0
   -0.7750  -11.0380  -20.1300 N   0  0  0  0  0  0  0  0  0  0  0  0
    0.2080  -10.8120  -20.1350 H   0  0  0  0  0  0  0  0  0  0  0  0
    1.8840   -6.9450  -27.3750 O   0  0  0  0  0  0  0  0  0  0  0  0
    2.3220  -11.9550  -25.1570 F   0  0  0  0  0  0  0  0  0  0  0  0
    2.1830  -10.7400  -25.7020 C   0  0  0  0  0  0  0  0  0  0  0  0
    3.2950  -10.0910  -26.2220 C   0  0  0  0  0  3  0  0  0  0  0  0
    3.1460   -8.8220  -26.7800 C   0  0  0  0  0  3  0  0  0  0  0  0
    1.8890   -8.2040  -26.8150 C   0  0  0  0  0  0  0  0  0  0  0  0
    0.7720   -8.8770  -26.3070 C   0  0  0  0  0  3  0  0  0  0  0  0
    0.9250  -10.1470  -25.7410 C   0  0  0  0  0  3  0  0  0  0  0  0
  1  2  2  0  0  0  0
  2  3  1  0  0  0  0
  3  4  1  0  0  0  0
  4  9  1  0  0  0  0
  4 10  1  0  0  0  0
  5  3  2  0  0  0  0
  6  5  1  0  0  0  0
  7  6  2  0  0  0  0
  7  1  1  0  0  0  0
  8  7  1  0  0  0  0
 10 11  1  0  0  0  0
 11 12  2  0  0  0  0
 13 12  1  0  0  0  0
 13 16  1  0  0  0  0
 14 13  2  0  0  0  0
 15 10  2  0  0  0  0
 15 14  1  0  0  0  0
 16 17  2  0  0  0  0
 16 20  1  0  0  0  0
 17 18  1  0  0  0  0
 18 19  2  0  0  0  0
 20 19  1  0  0  0  0
 21 20  1  0  0  0  0
 22  1  1  0  0  0  0
 22 27  1  0  0  0  0
 24 23  1  0  0  0  0
 25 24  2  0  0  0  0
 26 25  1  0  0  0  0
 27 26  2  0  0  0  0
 27 28  1  0  0  0  0
 28 29  2  0  0  0  0
 29 24  1  0  0  0  0
M  END
>  <minimizedAffinity>
-6.68826962

$$$$
