
 OpenBabel10152418113D

 29 32  0  0  0  0  0  0  0  0999 V2000
   -0.9240   -9.0520  -23.0770 C   0  0  0  0  0  0  0  0  0  0  0  0
   -0.3910   -8.2750  -24.0440 N   0  0  0  0  0  0  0  0  0  0  0  0
   -0.6380   -6.9600  -23.9830 C   0  0  0  0  0  0  0  0  0  0  0  0
   -0.0310   -6.0700  -24.8630 N   0  0  0  0  0  0  0  0  0  0  0  0
   -1.3980   -6.3990  -23.0270 N   0  0  0  0  0  0  0  0  0  0  0  0
   -1.9080   -7.2160  -22.0780 C   0  0  0  0  0  3  0  0  0  0  0  0
   -1.6860   -8.5700  -22.0360 C   0  0  0  0  0  0  0  0  0  0  0  0
   -2.3100   -9.5290  -20.7620 Cl  0  0  0  0  0  0  0  0  0  0  0  0
   -0.2110   -5.1190  -24.5780 H   0  0  0  0  0  0  0  0  0  0  0  0
    0.8010   -6.2700  -25.9670 C   0  0  0  0  0  0  0  0  0  0  0  0
    1.7640   -7.2870  -25.9150 C   0  0  0  0  0  3  0  0  0  0  0  0
    2.5590   -7.5950  -27.0280 C   0  0  0  0  0  3  0  0  0  0  0  0
    2.4150   -6.8800  -28.2220 C   0  0  0  0  0  0  0  0  0  0  0  0
    1.4740   -5.8460  -28.2710 C   0  0  0  0  0  3  0  0  0  0  0  0
    0.6650   -5.5620  -27.1640 C   0  0  0  0  0  3  0  0  0  0  0  0
    3.2040   -7.1900  -29.4050 C   0  0  0  0  0  0  0  0  0  0  0  0
    2.8530   -7.9140  -30.4500 N   0  0  0  0  0  0  0  0  0  0  0  0
    3.9420   -7.9460  -31.2890 N   0  0  0  0  0  0  0  0  0  0  0  0
    4.9600   -7.2790  -30.7680 N   0  0  0  0  0  0  0  0  0  0  0  0
    4.5090   -6.8180  -29.5950 N   0  0  0  0  0  0  0  0  0  0  0  0
    5.1280   -6.3040  -28.9870 H   0  0  0  0  0  0  0  0  0  0  0  0
   -0.5280  -10.3700  -23.1130 O   0  0  0  0  0  0  0  0  0  0  0  0
    2.3150  -12.0380  -27.5100 F   0  0  0  0  0  0  0  0  0  0  0  0
    1.6500  -11.6380  -26.4200 C   0  0  0  0  0  0  0  0  0  0  0  0
    0.2610  -11.6080  -26.4380 C   0  0  0  0  0  3  0  0  0  0  0  0
   -0.4280  -11.1830  -25.3030 C   0  0  0  0  0  3  0  0  0  0  0  0
    0.2710  -10.7870  -24.1550 C   0  0  0  0  0  0  0  0  0  0  0  0
    1.6690  -10.8410  -24.1420 C   0  0  0  0  0  3  0  0  0  0  0  0
    2.3580  -11.2610  -25.2840 C   0  0  0  0  0  3  0  0  0  0  0  0
  1  7  1  0  0  0  0
  2  3  1  0  0  0  0
  2  1  2  0  0  0  0
  3  5  2  0  0  0  0
  4  9  1  0  0  0  0
  4  3  1  0  0  0  0
  5  6  1  0  0  0  0
  6  7  2  0  0  0  0
  7  8  1  0  0  0  0
 10 11  1  0  0  0  0
 10  4  1  0  0  0  0
 12 11  2  0  0  0  0
 13 12  1  0  0  0  0
 14 13  2  0  0  0  0
 14 15  1  0  0  0  0
 15 10  2  0  0  0  0
 16 13  1  0  0  0  0
 17 16  2  0  0  0  0
 18 19  2  0  0  0  0
 18 17  1  0  0  0  0
 19 20  1  0  0  0  0
 20 16  1  0  0  0  0
 20 21  1  0  0  0  0
 22  1  1  0  0  0  0
 23 24  1  0  0  0  0
 24 29  1  0  0  0  0
 25 24  2  0  0  0  0
 25 26  1  0  0  0  0
 26 27  2  0  0  0  0
 27 28  1  0  0  0  0
 27 22  1  0  0  0  0
 29 28  2  0  0  0  0
M  END
>  <minimizedAffinity>
-9.23355293

$$$$

 OpenBabel10152418113D

 29 32  0  0  0  0  0  0  0  0999 V2000
    2.9560   -7.6230  -28.9310 C   0  0  0  0  0  0  0  0  0  0  0  0
    2.5550   -8.2850  -27.8250 N   0  0  0  0  0  0  0  0  0  0  0  0
    3.4070   -9.1720  -27.2940 C   0  0  0  0  0  0  0  0  0  0  0  0
    3.1300   -9.8080  -26.0890 N   0  0  0  0  0  0  0  0  0  0  0  0
    4.6140   -9.4380  -27.8230 N   0  0  0  0  0  0  0  0  0  0  0  0
    4.9740   -8.7490  -28.9300 C   0  0  0  0  0  3  0  0  0  0  0  0
    4.1850   -7.7990  -29.5290 C   0  0  0  0  0  0  0  0  0  0  0  0
    4.7390   -6.9180  -30.8880 Cl  0  0  0  0  0  0  0  0  0  0  0  0
    3.9390  -10.3190  -25.7690 H   0  0  0  0  0  0  0  0  0  0  0  0
    2.0040   -9.7910  -25.2620 C   0  0  0  0  0  0  0  0  0  0  0  0
    1.5710  -10.9900  -24.6790 C   0  0  0  0  0  3  0  0  0  0  0  0
    0.5080  -11.0140  -23.7660 C   0  0  0  0  0  3  0  0  0  0  0  0
   -0.1570   -9.8320  -23.4210 C   0  0  0  0  0  0  0  0  0  0  0  0
    0.2530   -8.6370  -24.0200 C   0  0  0  0  0  3  0  0  0  0  0  0
    1.3330   -8.6160  -24.9110 C   0  0  0  0  0  3  0  0  0  0  0  0
   -1.2470   -9.8160  -22.4560 C   0  0  0  0  0  0  0  0  0  0  0  0
   -2.0390   -8.8090  -22.1430 N   0  0  0  0  0  0  0  0  0  0  0  0
   -2.8880   -9.2690  -21.1630 N   0  0  0  0  0  0  0  0  0  0  0  0
   -2.6160  -10.5270  -20.8540 N   0  0  0  0  0  0  0  0  0  0  0  0
   -1.5920  -10.8660  -21.6470 N   0  0  0  0  0  0  0  0  0  0  0  0
   -1.1750  -11.7800  -21.5640 H   0  0  0  0  0  0  0  0  0  0  0  0
    2.0990   -6.6320  -29.3530 O   0  0  0  0  0  0  0  0  0  0  0  0
   -1.0300   -3.8560  -25.7890 F   0  0  0  0  0  0  0  0  0  0  0  0
   -0.2730   -4.5600  -26.6390 C   0  0  0  0  0  0  0  0  0  0  0  0
    0.6390   -3.9000  -27.4520 C   0  0  0  0  0  3  0  0  0  0  0  0
    1.4200   -4.6360  -28.3420 C   0  0  0  0  0  3  0  0  0  0  0  0
    1.2850   -6.0290  -28.4200 C   0  0  0  0  0  0  0  0  0  0  0  0
    0.3770   -6.6850  -27.5820 C   0  0  0  0  0  3  0  0  0  0  0  0
   -0.4090   -5.9430  -26.6940 C   0  0  0  0  0  3  0  0  0  0  0  0
  1  2  2  0  0  0  0
  2  3  1  0  0  0  0
  3  4  1  0  0  0  0
  4  9  1  0  0  0  0
  4 10  1  0  0  0  0
  5  3  2  0  0  0  0
  6  5  1  0  0  0  0
  7  1  1  0  0  0  0
  7  6  2  0  0  0  0
  8  7  1  0  0  0  0
 10 15  2  0  0  0  0
 10 11  1  0  0  0  0
 11 12  2  0  0  0  0
 12 13  1  0  0  0  0
 13 16  1  0  0  0  0
 14 13  2  0  0  0  0
 15 14  1  0  0  0  0
 16 17  2  0  0  0  0
 16 20  1  0  0  0  0
 17 18  1  0  0  0  0
 18 19  2  0  0  0  0
 20 21  1  0  0  0  0
 20 19  1  0  0  0  0
 22  1  1  0  0  0  0
 22 27  1  0  0  0  0
 24 23  1  0  0  0  0
 25 24  2  0  0  0  0
 26 25  1  0  0  0  0
 27 26  2  0  0  0  0
 27 28  1  0  0  0  0
 28 29  2  0  0  0  0
 29 24  1  0  0  0  0
M  END
>  <minimizedAffinity>
-8.19830036

$$$$

 OpenBabel10152418113D

 29 32  0  0  0  0  0  0  0  0999 V2000
   -1.3460  -10.7600  -22.2880 C   0  0  0  0  0  0  0  0  0  0  0  0
   -0.9320   -9.7070  -23.0230 N   0  0  0  0  0  0  0  0  0  0  0  0
   -1.2990   -8.4860  -22.6100 C   0  0  0  0  0  0  0  0  0  0  0  0
   -0.8180   -7.3390  -23.2330 N   0  0  0  0  0  0  0  0  0  0  0  0
   -2.0640   -8.2770  -21.5260 N   0  0  0  0  0  0  0  0  0  0  0  0
   -2.4530   -9.3620  -20.8190 C   0  0  0  0  0  3  0  0  0  0  0  0
   -2.1030  -10.6500  -21.1420 C   0  0  0  0  0  0  0  0  0  0  0  0
   -2.5760  -11.9680  -20.1580 Cl  0  0  0  0  0  0  0  0  0  0  0  0
   -1.0730   -6.5200  -22.7010 H   0  0  0  0  0  0  0  0  0  0  0  0
   -0.0210   -7.1560  -24.3650 C   0  0  0  0  0  0  0  0  0  0  0  0
    0.8740   -8.1700  -24.7370 C   0  0  0  0  0  3  0  0  0  0  0  0
    1.6260   -8.0810  -25.9160 C   0  0  0  0  0  3  0  0  0  0  0  0
    1.5090   -6.9630  -26.7500 C   0  0  0  0  0  0  0  0  0  0  0  0
    0.6390   -5.9360  -26.3690 C   0  0  0  0  0  3  0  0  0  0  0  0
   -0.1290   -6.0440  -25.2040 C   0  0  0  0  0  3  0  0  0  0  0  0
    2.2550   -6.8500  -27.9940 C   0  0  0  0  0  0  0  0  0  0  0  0
    1.9680   -6.1120  -29.0490 N   0  0  0  0  0  0  0  0  0  0  0  0
    2.9480   -6.3640  -29.9810 N   0  0  0  0  0  0  0  0  0  0  0  0
    3.8130   -7.2570  -29.5290 N   0  0  0  0  0  0  0  0  0  0  0  0
    3.3800   -7.5690  -28.3010 N   0  0  0  0  0  0  0  0  0  0  0  0
    3.8630   -8.2730  -27.7630 H   0  0  0  0  0  0  0  0  0  0  0  0
   -0.8310  -11.9750  -22.6800 O   0  0  0  0  0  0  0  0  0  0  0  0
    2.2790  -12.0290  -27.2110 F   0  0  0  0  0  0  0  0  0  0  0  0
    1.5470  -12.0270  -26.0900 C   0  0  0  0  0  0  0  0  0  0  0  0
    0.1610  -12.0200  -26.1760 C   0  0  0  0  0  3  0  0  0  0  0  0
   -0.5960  -12.0100  -25.0060 C   0  0  0  0  0  3  0  0  0  0  0  0
    0.0320  -12.0060  -23.7530 C   0  0  0  0  0  0  0  0  0  0  0  0
    1.4290  -12.0340  -23.6790 C   0  0  0  0  0  3  0  0  0  0  0  0
    2.1870  -12.0370  -24.8540 C   0  0  0  0  0  3  0  0  0  0  0  0
  1  7  1  0  0  0  0
  2  3  1  0  0  0  0
  2  1  2  0  0  0  0
  3  5  2  0  0  0  0
  4  9  1  0  0  0  0
  4  3  1  0  0  0  0
  5  6  1  0  0  0  0
  7  6  2  0  0  0  0
  7  8  1  0  0  0  0
 10  4  1  0  0  0  0
 11 10  1  0  0  0  0
 12 11  2  0  0  0  0
 13 14  2  0  0  0  0
 13 12  1  0  0  0  0
 14 15  1  0  0  0  0
 15 10  2  0  0  0  0
 16 13  1  0  0  0  0
 17 16  2  0  0  0  0
 18 19  2  0  0  0  0
 18 17  1  0  0  0  0
 19 20  1  0  0  0  0
 20 16  1  0  0  0  0
 20 21  1  0  0  0  0
 22  1  1  0  0  0  0
 23 24  1  0  0  0  0
 24 29  1  0  0  0  0
 25 24  2  0  0  0  0
 25 26  1  0  0  0  0
 26 27  2  0  0  0  0
 27 28  1  0  0  0  0
 27 22  1  0  0  0  0
 29 28  2  0  0  0  0
M  END
>  <minimizedAffinity>
-7.72532511

$$$$

 OpenBabel10152418113D

 29 32  0  0  0  0  0  0  0  0999 V2000
   -0.7470   -9.5790  -22.8850 C   0  0  0  0  0  0  0  0  0  0  0  0
    0.2280   -9.8130  -23.7890 N   0  0  0  0  0  0  0  0  0  0  0  0
    0.7420  -11.0490  -23.8340 C   0  0  0  0  0  0  0  0  0  0  0  0
    1.6610  -11.4130  -24.8130 N   0  0  0  0  0  0  0  0  0  0  0  0
    0.3460  -12.0390  -23.0160 N   0  0  0  0  0  0  0  0  0  0  0  0
   -0.6350  -11.7590  -22.1290 C   0  0  0  0  0  3  0  0  0  0  0  0
   -1.2460  -10.5340  -22.0270 C   0  0  0  0  0  0  0  0  0  0  0  0
   -2.5310  -10.2750  -20.9250 Cl  0  0  0  0  0  0  0  0  0  0  0  0
    1.8210  -12.4090  -24.7880 H   0  0  0  0  0  0  0  0  0  0  0  0
    2.2990  -10.6780  -25.8140 C   0  0  0  0  0  0  0  0  0  0  0  0
    3.0810  -11.3550  -26.7600 C   0  0  0  0  0  3  0  0  0  0  0  0
    3.6640  -10.6790  -27.8410 C   0  0  0  0  0  3  0  0  0  0  0  0
    3.4850   -9.3000  -27.9960 C   0  0  0  0  0  0  0  0  0  0  0  0
    2.7280   -8.6150  -27.0390 C   0  0  0  0  0  3  0  0  0  0  0  0
    2.1270   -9.3000  -25.9770 C   0  0  0  0  0  3  0  0  0  0  0  0
    4.0530   -8.5710  -29.1200 C   0  0  0  0  0  0  0  0  0  0  0  0
    4.1420   -7.2650  -29.2800 N   0  0  0  0  0  0  0  0  0  0  0  0
    4.7230   -7.0600  -30.5090 N   0  0  0  0  0  0  0  0  0  0  0  0
    4.9680   -8.2110  -31.1150 N   0  0  0  0  0  0  0  0  0  0  0  0
    4.5440   -9.1500  -30.2600 N   0  0  0  0  0  0  0  0  0  0  0  0
    4.5900  -10.1230  -30.5220 H   0  0  0  0  0  0  0  0  0  0  0  0
   -1.3300   -8.3340  -22.9740 O   0  0  0  0  0  0  0  0  0  0  0  0
    0.1860   -4.8740  -26.9650 F   0  0  0  0  0  0  0  0  0  0  0  0
   -0.2030   -5.7330  -26.0150 C   0  0  0  0  0  0  0  0  0  0  0  0
   -0.0280   -5.4000  -24.6780 C   0  0  0  0  0  3  0  0  0  0  0  0
   -0.4280   -6.3000  -23.6910 C   0  0  0  0  0  3  0  0  0  0  0  0
   -0.9980   -7.5310  -24.0420 C   0  0  0  0  0  0  0  0  0  0  0  0
   -1.1890   -7.8460  -25.3920 C   0  0  0  0  0  3  0  0  0  0  0  0
   -0.7810   -6.9440  -26.3800 C   0  0  0  0  0  3  0  0  0  0  0  0
  1  7  1  0  0  0  0
  2  1  2  0  0  0  0
  3  2  1  0  0  0  0
  3  5  2  0  0  0  0
  4  9  1  0  0  0  0
  4  3  1  0  0  0  0
  5  6  1  0  0  0  0
  6  7  2  0  0  0  0
  7  8  1  0  0  0  0
 10  4  1  0  0  0  0
 11 10  2  0  0  0  0
 12 11  1  0  0  0  0
 13 12  2  0  0  0  0
 13 14  1  0  0  0  0
 14 15  2  0  0  0  0
 15 10  1  0  0  0  0
 16 13  1  0  0  0  0
 17 16  2  0  0  0  0
 18 17  1  0  0  0  0
 19 18  2  0  0  0  0
 19 20  1  0  0  0  0
 20 16  1  0  0  0  0
 21 20  1  0  0  0  0
 22  1  1  0  0  0  0
 23 24  1  0  0  0  0
 24 25  1  0  0  0  0
 25 26  2  0  0  0  0
 27 26  1  0  0  0  0
 27 22  1  0  0  0  0
 28 27  2  0  0  0  0
 29 24  2  0  0  0  0
 29 28  1  0  0  0  0
M  END
>  <minimizedAffinity>
-7.62407207

$$$$

 OpenBabel10152418113D

 29 32  0  0  0  0  0  0  0  0999 V2000
    2.8670   -7.6150  -27.8630 C   0  0  0  0  0  0  0  0  0  0  0  0
    1.8750   -7.2460  -27.0250 N   0  0  0  0  0  0  0  0  0  0  0  0
    1.0730   -6.2490  -27.4220 C   0  0  0  0  0  0  0  0  0  0  0  0
   -0.0470   -5.8850  -26.6820 N   0  0  0  0  0  0  0  0  0  0  0  0
    1.2290   -5.6010  -28.5890 N   0  0  0  0  0  0  0  0  0  0  0  0
    2.2350   -6.0060  -29.3970 C   0  0  0  0  0  3  0  0  0  0  0  0
    3.0890   -7.0380  -29.0940 C   0  0  0  0  0  0  0  0  0  0  0  0
    4.2960   -7.5390  -30.2000 Cl  0  0  0  0  0  0  0  0  0  0  0  0
   -0.6110   -5.2290  -27.2010 H   0  0  0  0  0  0  0  0  0  0  0  0
   -0.5280   -6.3170  -25.4430 C   0  0  0  0  0  0  0  0  0  0  0  0
   -1.2620   -7.5100  -25.3780 C   0  0  0  0  0  3  0  0  0  0  0  0
   -1.6850   -8.0390  -24.1510 C   0  0  0  0  0  3  0  0  0  0  0  0
   -1.3890   -7.3770  -22.9540 C   0  0  0  0  0  0  0  0  0  0  0  0
   -0.6810   -6.1730  -23.0150 C   0  0  0  0  0  3  0  0  0  0  0  0
   -0.2390   -5.6640  -24.2420 C   0  0  0  0  0  3  0  0  0  0  0  0
   -1.7890   -7.9120  -21.6600 C   0  0  0  0  0  0  0  0  0  0  0  0
   -1.8920   -9.1760  -21.3000 N   0  0  0  0  0  0  0  0  0  0  0  0
   -2.3330   -9.1770  -19.9970 N   0  0  0  0  0  0  0  0  0  0  0  0
   -2.5250   -7.9430  -19.5610 N   0  0  0  0  0  0  0  0  0  0  0  0
   -2.1980   -7.1560  -20.5940 N   0  0  0  0  0  0  0  0  0  0  0  0
   -2.3040   -6.1550  -20.5150 H   0  0  0  0  0  0  0  0  0  0  0  0
    3.5730   -8.7280  -27.4670 O   0  0  0  0  0  0  0  0  0  0  0  0
    0.9870  -11.9440  -23.8370 F   0  0  0  0  0  0  0  0  0  0  0  0
    1.6340  -11.1880  -24.7320 C   0  0  0  0  0  0  0  0  0  0  0  0
    1.6840   -9.8110  -24.5560 C   0  0  0  0  0  3  0  0  0  0  0  0
    2.3520   -9.0260  -25.4950 C   0  0  0  0  0  3  0  0  0  0  0  0
    2.9660   -9.6170  -26.6070 C   0  0  0  0  0  0  0  0  0  0  0  0
    2.9270  -11.0070  -26.7620 C   0  0  0  0  0  3  0  0  0  0  0  0
    2.2500  -11.7920  -25.8230 C   0  0  0  0  0  3  0  0  0  0  0  0
  1 22  1  0  0  0  0
  1  2  2  0  0  0  0
  3  2  1  0  0  0  0
  3  4  1  0  0  0  0
  4 10  1  0  0  0  0
  5  3  2  0  0  0  0
  6  7  2  0  0  0  0
  6  5  1  0  0  0  0
  7  1  1  0  0  0  0
  8  7  1  0  0  0  0
  9  4  1  0  0  0  0
 10 11  2  0  0  0  0
 10 15  1  0  0  0  0
 11 12  1  0  0  0  0
 12 13  2  0  0  0  0
 13 16  1  0  0  0  0
 14 13  1  0  0  0  0
 15 14  2  0  0  0  0
 16 17  2  0  0  0  0
 16 20  1  0  0  0  0
 17 18  1  0  0  0  0
 18 19  2  0  0  0  0
 20 21  1  0  0  0  0
 20 19  1  0  0  0  0
 22 27  1  0  0  0  0
 24 25  1  0  0  0  0
 24 23  1  0  0  0  0
 26 25  2  0  0  0  0
 27 26  1  0  0  0  0
 28 27  2  0  0  0  0
 28 29  1  0  0  0  0
 29 24  2  0  0  0  0
M  END
>  <minimizedAffinity>
-7.48588228

$$$$

 OpenBabel10152418113D

 29 32  0  0  0  0  0  0  0  0999 V2000
    2.0840   -7.4180  -27.5120 C   0  0  0  0  0  0  0  0  0  0  0  0
    1.2620   -7.8530  -26.5330 N   0  0  0  0  0  0  0  0  0  0  0  0
    1.7850   -8.6660  -25.6060 C   0  0  0  0  0  0  0  0  0  0  0  0
    1.0480   -9.0630  -24.4950 N   0  0  0  0  0  0  0  0  0  0  0  0
    3.0660   -9.0720  -25.6240 N   0  0  0  0  0  0  0  0  0  0  0  0
    3.8530   -8.6090  -26.6220 C   0  0  0  0  0  3  0  0  0  0  0  0
    3.4180   -7.7490  -27.6000 C   0  0  0  0  0  0  0  0  0  0  0  0
    4.4920   -7.1500  -28.7910 Cl  0  0  0  0  0  0  0  0  0  0  0  0
    1.6420   -9.5420  -23.8350 H   0  0  0  0  0  0  0  0  0  0  0  0
   -0.2850   -8.8500  -24.1350 C   0  0  0  0  0  0  0  0  0  0  0  0
   -0.7200   -7.5410  -23.8850 C   0  0  0  0  0  3  0  0  0  0  0  0
   -2.0660   -7.2600  -23.6150 C   0  0  0  0  0  3  0  0  0  0  0  0
   -3.0120   -8.2900  -23.5790 C   0  0  0  0  0  0  0  0  0  0  0  0
   -2.5790   -9.6010  -23.8000 C   0  0  0  0  0  3  0  0  0  0  0  0
   -1.2380   -9.8720  -24.0960 C   0  0  0  0  0  3  0  0  0  0  0  0
   -4.4230   -8.0320  -23.3280 C   0  0  0  0  0  0  0  0  0  0  0  0
   -5.4650   -8.6790  -23.8090 N   0  0  0  0  0  0  0  0  0  0  0  0
   -6.5820   -8.0480  -23.3130 N   0  0  0  0  0  0  0  0  0  0  0  0
   -6.2450   -7.0140  -22.5590 N   0  0  0  0  0  0  0  0  0  0  0  0
   -4.9070   -6.9950  -22.5750 N   0  0  0  0  0  0  0  0  0  0  0  0
   -4.4100   -6.2590  -22.0960 H   0  0  0  0  0  0  0  0  0  0  0  0
    1.5300   -6.4830  -28.3580 O   0  0  0  0  0  0  0  0  0  0  0  0
   -1.0180   -2.0130  -26.4260 F   0  0  0  0  0  0  0  0  0  0  0  0
   -0.4080   -3.1190  -26.8700 C   0  0  0  0  0  0  0  0  0  0  0  0
    0.6310   -3.0080  -27.7850 C   0  0  0  0  0  3  0  0  0  0  0  0
    1.2570   -4.1630  -28.2510 C   0  0  0  0  0  3  0  0  0  0  0  0
    0.8430   -5.4250  -27.8040 C   0  0  0  0  0  0  0  0  0  0  0  0
   -0.1920   -5.5230  -26.8670 C   0  0  0  0  0  3  0  0  0  0  0  0
   -0.8230   -4.3630  -26.4060 C   0  0  0  0  0  3  0  0  0  0  0  0
  1  2  2  0  0  0  0
  2  3  1  0  0  0  0
  3  4  1  0  0  0  0
  4 10  1  0  0  0  0
  4  9  1  0  0  0  0
  5  3  2  0  0  0  0
  6  5  1  0  0  0  0
  7  1  1  0  0  0  0
  7  6  2  0  0  0  0
  8  7  1  0  0  0  0
 10 15  2  0  0  0  0
 10 11  1  0  0  0  0
 11 12  2  0  0  0  0
 12 13  1  0  0  0  0
 13 16  1  0  0  0  0
 14 13  2  0  0  0  0
 15 14  1  0  0  0  0
 16 20  1  0  0  0  0
 17 16  2  0  0  0  0
 17 18  1  0  0  0  0
 18 19  2  0  0  0  0
 20 19  1  0  0  0  0
 20 21  1  0  0  0  0
 22 27  1  0  0  0  0
 22  1  1  0  0  0  0
 24 23  1  0  0  0  0
 24 29  1  0  0  0  0
 25 24  2  0  0  0  0
 26 27  2  0  0  0  0
 26 25  1  0  0  0  0
 27 28  1  0  0  0  0
 28 29  2  0  0  0  0
M  END
>  <minimizedAffinity>
-7.35709095

$$$$

 OpenBabel10152418113D

 29 32  0  0  0  0  0  0  0  0999 V2000
   -1.6640  -10.6380  -22.1350 C   0  0  0  0  0  0  0  0  0  0  0  0
   -1.2320   -9.5280  -22.7700 N   0  0  0  0  0  0  0  0  0  0  0  0
   -1.3850   -8.3570  -22.1380 C   0  0  0  0  0  0  0  0  0  0  0  0
   -0.8600   -7.1800  -22.6620 N   0  0  0  0  0  0  0  0  0  0  0  0
   -1.9600   -8.2460  -20.9280 N   0  0  0  0  0  0  0  0  0  0  0  0
   -2.3740   -9.3850  -20.3280 C   0  0  0  0  0  3  0  0  0  0  0  0
   -2.2340  -10.6340  -20.8800 C   0  0  0  0  0  0  0  0  0  0  0  0
   -2.7210  -12.0370  -20.0290 Cl  0  0  0  0  0  0  0  0  0  0  0  0
   -0.9370   -6.4340  -21.9870 H   0  0  0  0  0  0  0  0  0  0  0  0
   -0.2140   -6.9020  -23.8680 C   0  0  0  0  0  0  0  0  0  0  0  0
    0.7840   -7.7770  -24.3210 C   0  0  0  0  0  3  0  0  0  0  0  0
    1.3960   -7.5990  -25.5690 C   0  0  0  0  0  3  0  0  0  0  0  0
    1.0300   -6.5300  -26.3930 C   0  0  0  0  0  0  0  0  0  0  0  0
    0.0550   -5.6380  -25.9340 C   0  0  0  0  0  3  0  0  0  0  0  0
   -0.5720   -5.8360  -24.6980 C   0  0  0  0  0  3  0  0  0  0  0  0
    1.6260   -6.3300  -27.7060 C   0  0  0  0  0  0  0  0  0  0  0  0
    2.5240   -7.0810  -28.3130 N   0  0  0  0  0  0  0  0  0  0  0  0
    2.7980   -6.4700  -29.5150 N   0  0  0  0  0  0  0  0  0  0  0  0
    2.1060   -5.3500  -29.6440 N   0  0  0  0  0  0  0  0  0  0  0  0
    1.3860   -5.2550  -28.5200 N   0  0  0  0  0  0  0  0  0  0  0  0
    0.8000   -4.4480  -28.3660 H   0  0  0  0  0  0  0  0  0  0  0  0
   -1.3610  -11.8220  -22.7690 O   0  0  0  0  0  0  0  0  0  0  0  0
    2.2270  -11.6230  -26.9280 F   0  0  0  0  0  0  0  0  0  0  0  0
    1.3280  -11.6670  -25.9370 C   0  0  0  0  0  0  0  0  0  0  0  0
    1.7320  -11.4090  -24.6340 C   0  0  0  0  0  3  0  0  0  0  0  0
    0.7940  -11.4650  -23.6030 C   0  0  0  0  0  3  0  0  0  0  0  0
   -0.5430  -11.7800  -23.8770 C   0  0  0  0  0  0  0  0  0  0  0  0
   -0.9430  -12.0180  -25.1970 C   0  0  0  0  0  3  0  0  0  0  0  0
    0.0010  -11.9680  -26.2280 C   0  0  0  0  0  3  0  0  0  0  0  0
  1  7  1  0  0  0  0
  2  3  1  0  0  0  0
  2  1  2  0  0  0  0
  3  5  2  0  0  0  0
  4  3  1  0  0  0  0
  4  9  1  0  0  0  0
  5  6  1  0  0  0  0
  7  6  2  0  0  0  0
  7  8  1  0  0  0  0
 10  4  1  0  0  0  0
 11 10  1  0  0  0  0
 12 11  2  0  0  0  0
 13 14  2  0  0  0  0
 13 12  1  0  0  0  0
 14 15  1  0  0  0  0
 15 10  2  0  0  0  0
 16 13  1  0  0  0  0
 17 16  2  0  0  0  0
 18 17  1  0  0  0  0
 19 18  2  0  0  0  0
 19 20  1  0  0  0  0
 20 21  1  0  0  0  0
 20 16  1  0  0  0  0
 22  1  1  0  0  0  0
 23 24  1  0  0  0  0
 24 25  1  0  0  0  0
 25 26  2  0  0  0  0
 27 26  1  0  0  0  0
 27 22  1  0  0  0  0
 28 27  2  0  0  0  0
 29 24  2  0  0  0  0
 29 28  1  0  0  0  0
M  END
>  <minimizedAffinity>
-6.94040966

$$$$

 OpenBabel10152418113D

 29 32  0  0  0  0  0  0  0  0999 V2000
    0.9950   -6.0150  -26.8860 C   0  0  0  0  0  0  0  0  0  0  0  0
    0.3090   -6.4080  -25.7920 N   0  0  0  0  0  0  0  0  0  0  0  0
   -0.6600   -5.5970  -25.3480 C   0  0  0  0  0  0  0  0  0  0  0  0
   -1.4980   -5.9760  -24.3040 N   0  0  0  0  0  0  0  0  0  0  0  0
   -0.9550   -4.4210  -25.9270 N   0  0  0  0  0  0  0  0  0  0  0  0
   -0.2430   -4.0690  -27.0220 C   0  0  0  0  0  3  0  0  0  0  0  0
    0.7460   -4.8460  -27.5710 C   0  0  0  0  0  0  0  0  0  0  0  0
    1.5560   -4.3650  -29.0010 Cl  0  0  0  0  0  0  0  0  0  0  0  0
   -2.2550   -5.3170  -24.2070 H   0  0  0  0  0  0  0  0  0  0  0  0
   -1.5020   -7.0980  -23.4720 C   0  0  0  0  0  0  0  0  0  0  0  0
   -1.3830   -6.9150  -22.0860 C   0  0  0  0  0  3  0  0  0  0  0  0
   -1.4780   -7.9960  -21.1990 C   0  0  0  0  0  3  0  0  0  0  0  0
   -1.6850   -9.2930  -21.6800 C   0  0  0  0  0  0  0  0  0  0  0  0
   -1.7770   -9.4840  -23.0620 C   0  0  0  0  0  3  0  0  0  0  0  0
   -1.7080   -8.3980  -23.9420 C   0  0  0  0  0  3  0  0  0  0  0  0
   -1.8150  -10.4340  -20.7860 C   0  0  0  0  0  0  0  0  0  0  0  0
   -2.9200  -11.0410  -20.3990 N   0  0  0  0  0  0  0  0  0  0  0  0
   -2.5370  -12.0390  -19.5330 N   0  0  0  0  0  0  0  0  0  0  0  0
   -1.2240  -12.0390  -19.3630 N   0  0  0  0  0  0  0  0  0  0  0  0
   -0.7750  -11.0380  -20.1300 N   0  0  0  0  0  0  0  0  0  0  0  0
    0.2080  -10.8120  -20.1350 H   0  0  0  0  0  0  0  0  0  0  0  0
    1.8840   -6.9450  -27.3750 O   0  0  0  0  0  0  0  0  0  0  0  0
    2.3220  -11.9550  -25.1570 F   0  0  0  0  0  0  0  0  0  0  0  0
    2.1830  -10.7400  -25.7020 C   0  0  0  0  0  0  0  0  0  0  0  0
    3.2950  -10.0910  -26.2220 C   0  0  0  0  0  3  0  0  0  0  0  0
    3.1460   -8.8220  -26.7800 C   0  0  0  0  0  3  0  0  0  0  0  0
    1.8890   -8.2040  -26.8150 C   0  0  0  0  0  0  0  0  0  0  0  0
    0.7720   -8.8770  -26.3070 C   0  0  0  0  0  3  0  0  0  0  0  0
    0.9250  -10.1470  -25.7410 C   0  0  0  0  0  3  0  0  0  0  0  0
  1  2  2  0  0  0  0
  2  3  1  0  0  0  0
  3  4  1  0  0  0  0
  4  9  1  0  0  0  0
  4 10  1  0  0  0  0
  5  3  2  0  0  0  0
  6  5  1  0  0  0  0
  7  6  2  0  0  0  0
  7  1  1  0  0  0  0
  8  7  1  0  0  0  0
 10 11  1  0  0  0  0
 11 12  2  0  0  0  0
 13 12  1  0  0  0  0
 13 16  1  0  0  0  0
 14 13  2  0  0  0  0
 15 10  2  0  0  0  0
 15 14  1  0  0  0  0
 16 17  2  0  0  0  0
 16 20  1  0  0  0  0
 17 18  1  0  0  0  0
 18 19  2  0  0  0  0
 20 19  1  0  0  0  0
 21 20  1  0  0  0  0
 22  1  1  0  0  0  0
 22 27  1  0  0  0  0
 24 23  1  0  0  0  0
 25 24  2  0  0  0  0
 26 25  1  0  0  0  0
 27 26  2  0  0  0  0
 27 28  1  0  0  0  0
 28 29  2  0  0  0  0
 29 24  1  0  0  0  0
M  END
>  <minimizedAffinity>
-6.68826962

$$$$
