REMARK  Name = 
REMARK  4 active torsions:
REMARK  status: ('A' for Active; 'I' for Inactive)
REMARK    1  A    between atoms: C_5  and  O_6
REMARK    2  A    between atoms: O_6  and  C_7
REMARK    3  A    between atoms: N_10  and  C_11
REMARK    4  A    between atoms: C_14  and  C_15
REMARK                            x       y       z     vdW  Elec       q    Type
REMARK                         _______ _______ _______ _____ _____    ______ ____
ROOT
ATOM      1  C   UNL     1      -3.934   1.272  -0.281  0.00  0.00    +0.243 A 
ATOM      2  N   UNL     1      -4.653   1.460   0.846  0.00  0.00    -0.178 NA
ATOM      3  C   UNL     1      -5.479   2.514   0.881  0.00  0.00    +0.223 A 
ATOM      4  N   UNL     1      -6.347   2.716   1.949  0.00  0.00    -0.284 N 
ATOM      5  N   UNL     1      -5.601   3.385  -0.135  0.00  0.00    -0.221 NA
ATOM      6  C   UNL     1      -4.863   3.155  -1.245  0.00  0.00    +0.139 A 
ATOM      7  C   UNL     1      -4.013   2.087  -1.389  0.00  0.00    +0.121 A 
ATOM      8 CL   UNL     1      -3.164   1.824  -2.852  0.00  0.00    -0.076 Cl
ATOM      9  H   UNL     1      -6.993   3.462   1.738  0.00  0.00    +0.155 HD
ENDROOT
BRANCH   4  10
ATOM     10  C   UNL     1      -6.508   2.041   3.161  0.00  0.00    +0.034 A 
ATOM     11  C   UNL     1      -7.780   1.995   3.749  0.00  0.00    +0.024 A 
ATOM     12  C   UNL     1      -8.018   1.251   4.913  0.00  0.00    +0.018 A 
ATOM     13  C   UNL     1      -6.980   0.540   5.525  0.00  0.00    +0.070 A 
ATOM     14  C   UNL     1      -5.703   0.605   4.958  0.00  0.00    +0.018 A 
ATOM     15  C   UNL     1      -5.478   1.328   3.781  0.00  0.00    +0.024 A 
BRANCH  13  16
ATOM     16  C   UNL     1      -7.197  -0.264   6.719  0.00  0.00    +0.373 C 
ATOM     17  N   UNL     1      -6.350  -0.506   7.700  0.00  0.00    +0.105 NA
ATOM     18  N   UNL     1      -6.999  -1.339   8.581  0.00  0.00    +0.113 NA
ATOM     19  N   UNL     1      -8.215  -1.631   8.148  0.00  0.00    +0.060 NA
ATOM     20  N   UNL     1      -8.337  -0.974   6.988  0.00  0.00    -0.084 N 
ATOM     21  H   UNL     1      -9.178  -1.076   6.440  0.00  0.00    +0.329 HD
ENDBRANCH  13  16
ENDBRANCH   4  10
BRANCH   1  22
ATOM     22  O   UNL     1      -3.206   0.104  -0.313  0.00  0.00    -0.437 OA
BRANCH  22  27
ATOM     23  F   UNL     1       2.230  -0.015   0.487  0.00  0.00    -0.205 F 
ATOM     24  C   UNL     1       0.904   0.041   0.312  0.00  0.00    +0.124 A 
ATOM     25  C   UNL     1       0.223  -1.087  -0.127  0.00  0.00    +0.042 A 
ATOM     26  C   UNL     1      -1.157  -1.022  -0.316  0.00  0.00    +0.049 A 
ATOM     27  C   UNL     1      -1.852   0.169  -0.068  0.00  0.00    +0.131 A 
ATOM     28  C   UNL     1      -1.158   1.293   0.394  0.00  0.00    +0.049 A 
ATOM     29  C   UNL     1       0.227   1.227   0.576  0.00  0.00    +0.042 A 
ENDBRANCH  22  27
ENDBRANCH   1  22
TORSDOF 4
