
 OpenBabel10152419013D

 41 48  0  0  1  0  0  0  0  0999 V2000
    4.3610  -12.3280    9.3660 C   0  0  0  0  0  0  0  0  0  0  0  0
    3.9320  -11.8010    8.1440 C   0  0  0  0  0  3  0  0  0  0  0  0
    3.4020  -10.5150    8.0820 C   0  0  0  0  0  3  0  0  0  0  0  0
    3.2800   -9.7450    9.2430 C   0  0  0  0  0  3  0  0  0  0  0  0
    3.6520  -10.2660   10.4830 C   0  0  0  0  0  0  0  0  0  0  0  0
    4.2010  -11.5570   10.5290 C   0  0  0  0  0  3  0  0  0  0  0  0
    3.5780   -9.5730   11.7060 N   0  0  0  0  0  0  0  0  0  0  0  0
    3.9890   -9.8530   12.9760 C   0  0  0  0  0  0  0  0  0  0  0  0
    3.6230   -9.1400   13.9100 O   0  0  0  0  0  0  0  0  0  0  0  0
    3.0870   -8.6850   11.6790 H   0  0  0  0  0  0  0  0  0  0  0  0
    4.9410  -10.9670   13.2470 C   0  0  0  0  0  0  0  0  0  0  0  0
    6.1710  -10.6440   13.6830 C   0  0  0  0  0  3  0  0  0  0  0  0
    7.2440  -11.6690   13.9290 C   0  0  0  0  0  3  0  0  0  0  0  0
    6.7700  -13.1540   13.8620 C   0  0  0  0  0  0  0  0  0  0  0  0
    5.4180  -13.3580   13.2270 C   0  0  0  0  0  3  0  0  0  0  0  0
    4.5930  -12.3400   12.9410 C   0  0  0  0  0  3  0  0  0  0  0  0
    7.8180  -14.0690   13.2490 N   0  0  0  0  0  4  0  0  0  0  0  0
    7.9400  -14.0090   11.7250 C   0  0  2  0  0  0  0  0  0  0  0  0
    8.9430  -15.0760   11.2620 C   0  0  2  0  0  3  0  0  0  0  0  0
   10.2150  -14.8950   11.8940 O   0  0  0  0  0  0  0  0  0  0  0  0
   10.1300  -15.0090   13.3170 C   0  0  0  0  0  2  0  0  0  0  0  0
    9.1960  -13.9380   13.8950 C   0  0  0  0  0  2  0  0  0  0  0  0
    7.5000  -15.0210   13.4660 H   0  0  0  0  0  0  0  0  0  0  0  0
    4.9960  -13.6970    9.4280 C   0  0  0  0  0  2  0  0  0  0  0  0
    9.9210  -10.9260   11.7730 C   0  0  0  0  0  0  0  0  0  0  0  0
   10.7800  -12.0290   11.9060 C   0  0  0  0  0  3  0  0  0  0  0  0
   10.3640  -13.2770   11.4730 C   0  0  0  0  0  3  0  0  0  0  0  0
    9.0890  -13.4160   10.9320 C   0  0  2  0  0  0  0  0  0  0  0  0
    8.2080  -12.3060   10.8110 C   0  0  1  0  0  0  0  0  0  0  0  0
    6.8900  -12.3880   10.3090 C   0  0  0  0  0  0  0  0  0  0  0  0
    6.3510  -13.6240    9.9450 N   0  0  0  0  0  0  0  0  0  0  0  0
    6.1230  -11.2970   10.1500 N   0  0  0  0  0  0  0  0  0  0  0  0
    6.6410  -10.1320   10.5400 C   0  0  0  0  0  3  0  0  0  0  0  0
    7.8560   -9.9490   11.0560 N   0  0  0  0  0  0  0  0  0  0  0  0
    8.6380  -11.0290   11.2160 C   0  0  0  0  0  0  0  0  0  0  0  0
    6.6110  -14.3880   10.5550 H   0  0  0  0  0  0  0  0  0  0  0  0
   10.3360   -9.4640   13.6480 N   0  0  0  0  0  0  0  0  0  0  0  0
   10.4000   -9.6300   12.2940 C   0  0  0  0  0  0  0  0  0  0  0  0
   10.7820   -8.7250   11.5540 O   0  0  0  0  0  0  0  0  0  0  0  0
   10.6430   -8.5760   14.0230 H   0  0  0  0  0  0  0  0  0  0  0  0
   10.0540  -10.1930   14.2890 H   0  0  0  0  0  0  0  0  0  0  0  0
  1 24  1  0  0  0  0
  1  6  1  0  0  0  0
  2  1  2  0  0  0  0
  3  2  1  0  0  0  0
  3  4  2  0  0  0  0
  4  5  1  0  0  0  0
  5  6  2  0  0  0  0
  5  7  1  0  0  0  0
  7  8  1  0  0  0  0
  8 11  1  0  0  0  0
  8  9  2  0  0  0  0
 10  7  1  0  0  0  0
 11 12  1  0  0  0  0
 12 13  2  0  0  0  0
 14 13  1  0  0  0  0
 15 14  2  0  0  0  0
 16 15  1  0  0  0  0
 16 11  2  0  0  0  0
 17 23  1  0  0  0  0
 17 14  1  0  0  0  0
 17 22  1  0  0  0  0
 18 17  1  1  0  0  0
 19 18  1  0  0  0  0
 19 20  1  1  0  0  0
 20 21  1  0  0  0  0
 21 22  1  0  0  0  0
 24 31  1  0  0  0  0
 25 26  1  0  0  0  0
 25 38  1  0  0  0  0
 27 26  2  0  0  0  0
 28 19  1  0  0  0  0
 28 27  1  1  0  0  0
 28 18  1  0  0  0  0
 29 30  1  6  0  0  0
 29 28  1  0  0  0  0
 29 35  1  0  0  0  0
 29 18  1  0  0  0  0
 31 30  1  0  0  0  0
 31 36  1  0  0  0  0
 32 30  2  0  0  0  0
 32 33  1  0  0  0  0
 33 34  2  0  0  0  0
 34 35  1  0  0  0  0
 35 25  2  0  0  0  0
 37 40  1  0  0  0  0
 37 41  1  0  0  0  0
 38 37  1  0  0  0  0
 39 38  2  0  0  0  0
M  END
>  <minimizedAffinity>
49.8186836

$$$$
