REMARK  Name = 
REMARK  6 active torsions:
REMARK  status: ('A' for Active; 'I' for Inactive)
REMARK    1  A    between atoms: C_2  and  C_4
REMARK    2  A    between atoms: N_10  and  C_11
REMARK    3  A    between atoms: C_11  and  C_12
REMARK    4  A    between atoms: C_16  and  N_17
REMARK    5  A    between atoms: C_18  and  C_20
REMARK    6  A    between atoms: C_23  and  N_24
REMARK                            x       y       z     vdW  Elec       q    Type
REMARK                         _______ _______ _______ _____ _____    ______ ____
ROOT
ATOM      1  C   UNL     1       1.681   4.041   8.322  0.00  0.00    -0.029 A 
ATOM      2  C   UNL     1       1.282   2.780   8.776  0.00  0.00    +0.005 A 
ATOM      3  C   UNL     1       1.949   2.172   9.836  0.00  0.00    +0.002 A 
ATOM      4  C   UNL     1       3.033   2.810  10.446  0.00  0.00    +0.023 A 
ATOM      5  C   UNL     1       3.485   4.045   9.980  0.00  0.00    +0.034 A 
ATOM      6  C   UNL     1       2.793   4.655   8.922  0.00  0.00    +0.028 A 
ENDROOT
BRANCH   5   7
ATOM      7  N   UNL     1       4.558   4.773  10.528  0.00  0.00    -0.282 N 
ATOM      8  C   UNL     1       5.542   4.474  11.424  0.00  0.00    +0.248 C 
ATOM      9  O   UNL     1       6.252   5.372  11.877  0.00  0.00    -0.270 OA
ATOM     10  H   UNL     1       4.621   5.745  10.242  0.00  0.00    +0.155 HD
BRANCH   8  11
ATOM     11  C   UNL     1       5.826   3.063  11.811  0.00  0.00    +0.033 C 
ATOM     12  C   UNL     1       5.762   2.750  13.117  0.00  0.00    -0.008 C 
ATOM     13  C   UNL     1       6.092   1.380  13.643  0.00  0.00    +0.087 C 
ATOM     14  C   UNL     1       6.294   0.282  12.553  0.00  0.00    +0.092 C 
ATOM     15  C   UNL     1       6.478   0.808  11.153  0.00  0.00    +0.027 C 
ATOM     16  C   UNL     1       6.268   2.093  10.830  0.00  0.00    +0.014 C 
BRANCH  14  17
ATOM     17  N   UNL     1       7.386  -0.708  12.925  0.00  0.00    +0.244 N 
ATOM     18  C   UNL     1       8.807  -0.141  12.971  0.00  0.00    +0.160 C 
ATOM     19  C   UNL     1       9.794  -1.288  13.233  0.00  0.00    +0.210 C 
ATOM     20  O   UNL     1       9.470  -1.979  14.445  0.00  0.00    -0.369 OA
ATOM     21  C   UNL     1       8.167  -2.568  14.396  0.00  0.00    +0.210 C 
ATOM     22  C   UNL     1       7.090  -1.494  14.201  0.00  0.00    +0.160 C 
ATOM     23  H   UNL     1       7.387  -1.401  12.167  0.00  0.00    +0.204 HD
ENDBRANCH  14  17
ENDBRANCH   8  11
ENDBRANCH   5   7
BRANCH   1  24
ATOM     24  C   UNL     1       0.920   4.733   7.216  0.00  0.00    +0.138 C 
BRANCH  24  31
ATOM     25  C   UNL     1       1.319   1.865   1.827  0.00  0.00    +0.063 A 
ATOM     26  C   UNL     1       2.450   2.506   1.294  0.00  0.00    +0.015 A 
ATOM     27  C   UNL     1       3.123   3.449   2.052  0.00  0.00    +0.002 A 
ATOM     28  C   UNL     1       2.650   3.759   3.324  0.00  0.00    +0.013 A 
ATOM     29  C   UNL     1       1.495   3.127   3.862  0.00  0.00    +0.041 A 
ATOM     30  C   UNL     1       0.942   3.425   5.127  0.00  0.00    +0.130 A 
ATOM     31  N   UNL     1       1.495   4.436   5.917  0.00  0.00    -0.324 N 
ATOM     32  N   UNL     1      -0.109   2.749   5.619  0.00  0.00    -0.220 NA
ATOM     33  C   UNL     1      -0.647   1.815   4.834  0.00  0.00    +0.223 A 
ATOM     34  N   UNL     1      -0.226   1.479   3.615  0.00  0.00    -0.235 NA
ATOM     35  C   UNL     1       0.828   2.142   3.111  0.00  0.00    +0.088 A 
ATOM     36  H   UNL     1       1.805   5.247   5.398  0.00  0.00    +0.148 HD
BRANCH  25  38
ATOM     37  N   UNL     1       1.363  -0.131   0.471  0.00  0.00    -0.325 N 
ATOM     38  C   UNL     1       0.615   0.903   0.956  0.00  0.00    +0.244 C 
ATOM     39  O   UNL     1      -0.563   1.049   0.634  0.00  0.00    -0.270 OA
ATOM     40  H   UNL     1       0.903  -0.791  -0.143  0.00  0.00    +0.145 HD
ATOM     41  H   UNL     1       2.325  -0.298   0.734  0.00  0.00    +0.145 HD
ENDBRANCH  25  38
ENDBRANCH  24  31
ENDBRANCH   1  24
TORSDOF 6
