
 OpenBabel10152418303D

 40 43  0  0  1  0  0  0  0  0999 V2000
   -0.7910   -8.2060  -23.6670 C   0  0  0  0  0  0  0  0  0  0  0  0
   -1.4590   -7.2580  -24.4460 C   0  0  0  0  0  3  0  0  0  0  0  0
   -0.7620   -6.5020  -25.3990 C   0  0  0  0  0  3  0  0  0  0  0  0
    0.6010   -6.7180  -25.6350 C   0  0  0  0  0  3  0  0  0  0  0  0
    1.2870   -7.6600  -24.8810 C   0  0  0  0  0  0  0  0  0  0  0  0
    0.5940   -8.3390  -23.8740 C   0  0  0  0  0  3  0  0  0  0  0  0
    2.6010   -8.1020  -25.1100 N   0  0  0  0  0  0  0  0  0  0  0  0
    3.3520   -8.2640  -26.2410 C   0  0  0  0  0  0  0  0  0  0  0  0
    4.3180   -9.0270  -26.2320 O   0  0  0  0  0  0  0  0  0  0  0  0
    3.0880   -8.4830  -24.3050 H   0  0  0  0  0  0  0  0  0  0  0  0
    3.1050   -7.4980  -27.4640 C   0  0  0  0  0  0  0  0  0  0  0  0
    2.3820   -6.3010  -27.3700 C   0  0  0  0  0  3  0  0  0  0  0  0
    2.0210   -5.6000  -28.5330 C   0  0  0  0  0  0  0  0  0  0  0  0
    2.3780   -6.1320  -29.7840 C   0  0  0  0  0  3  0  0  0  0  0  0
    3.0800   -7.3380  -29.8710 C   0  0  0  0  0  3  0  0  0  0  0  0
    3.4330   -8.0210  -28.7110 C   0  0  0  0  0  0  0  0  0  0  0  0
    4.0540   -9.2030  -28.8260 F   0  0  0  0  0  0  0  0  0  0  0  0
    1.2210   -4.3240  -28.4230 C   0  0  0  0  0  0  0  0  0  0  0  0
    0.8150   -3.8590  -29.6340 F   0  0  0  0  0  0  0  0  0  0  0  0
    0.0920   -4.4820  -27.6780 F   0  0  0  0  0  0  0  0  0  0  0  0
    1.9110   -3.3060  -27.8390 F   0  0  0  0  0  0  0  0  0  0  0  0
   -2.8570   -8.6410  -22.2120 C   0  0  0  0  0  1  0  0  0  0  0  0
   -1.4650   -9.1250  -22.6490 C   0  0  1  0  0  3  0  0  0  0  0  0
   -1.6160  -10.5010  -23.1400 N   0  0  0  0  0  0  0  0  0  0  0  0
   -2.5780  -10.8320  -23.1240 H   0  0  0  0  0  0  0  0  0  0  0  0
   -1.0380  -11.0100  -24.2860 C   0  0  0  0  0  0  0  0  0  0  0  0
   -1.8830  -10.9710  -25.3280 N   0  0  0  0  0  0  0  0  0  0  0  0
   -1.3640  -11.2310  -26.5250 C   0  0  0  0  0  3  0  0  0  0  0  0
   -0.0780  -11.4860  -26.7830 N   0  0  0  0  0  0  0  0  0  0  0  0
    0.7650  -11.6010  -25.7340 C   0  0  0  0  0  0  0  0  0  0  0  0
    2.1420  -11.8500  -25.9070 C   0  0  0  0  0  0  0  0  0  0  0  0
    2.9980  -12.0390  -24.8050 C   0  0  0  0  0  3  0  0  0  0  0  0
    2.4980  -12.0090  -23.5140 C   0  0  0  0  0  3  0  0  0  0  0  0
    1.1510  -11.7300  -23.3210 C   0  0  0  0  0  3  0  0  0  0  0  0
    0.2900  -11.4550  -24.4160 C   0  0  0  0  0  0  0  0  0  0  0  0
    2.8030  -11.8890  -27.2490 C   0  0  0  0  0  0  0  0  0  0  0  0
    2.0150  -11.9350  -28.3590 N   0  0  0  0  0  0  0  0  0  0  0  0
    4.0250  -11.8490  -27.3600 O   0  0  0  0  0  0  0  0  0  0  0  0
    2.4500  -11.9190  -29.2700 H   0  0  0  0  0  0  0  0  0  0  0  0
    1.0050  -12.0070  -28.2830 H   0  0  0  0  0  0  0  0  0  0  0  0
  1 23  1  0  0  0  0
  2  1  2  0  0  0  0
  3  2  1  0  0  0  0
  4  3  2  0  0  0  0
  4  5  1  0  0  0  0
  5  6  2  0  0  0  0
  6  1  1  0  0  0  0
  7  5  1  0  0  0  0
  7 10  1  0  0  0  0
  8  9  2  0  0  0  0
  8  7  1  0  0  0  0
 11 12  1  0  0  0  0
 11  8  1  0  0  0  0
 13 18  1  0  0  0  0
 13 12  2  0  0  0  0
 14 13  1  0  0  0  0
 15 14  2  0  0  0  0
 15 16  1  0  0  0  0
 16 11  2  0  0  0  0
 17 16  1  0  0  0  0
 18 21  1  0  0  0  0
 18 20  1  0  0  0  0
 19 18  1  0  0  0  0
 23 22  1  6  0  0  0
 24 25  1  0  0  0  0
 24 23  1  0  0  0  0
 26 24  1  0  0  0  0
 27 26  2  0  0  0  0
 28 27  1  0  0  0  0
 29 28  2  0  0  0  0
 29 30  1  0  0  0  0
 30 35  1  0  0  0  0
 31 30  2  0  0  0  0
 31 32  1  0  0  0  0
 32 33  2  0  0  0  0
 33 34  1  0  0  0  0
 35 26  1  0  0  0  0
 35 34  2  0  0  0  0
 36 31  1  0  0  0  0
 37 40  1  0  0  0  0
 37 36  1  0  0  0  0
 38 36  2  0  0  0  0
 39 37  1  0  0  0  0
M  END
>  <minimizedAffinity>
-6.89213753

$$$$
