REMARK  Name = 
REMARK  8 active torsions:
REMARK  status: ('A' for Active; 'I' for Inactive)
REMARK    1  A    between atoms: C_1  and  C_2
REMARK    2  A    between atoms: C_2  and  N_3
REMARK    3  A    between atoms: C_2  and  C_17
REMARK    4  A    between atoms: N_3  and  C_4
REMARK    5  A    between atoms: C_9  and  C_10
REMARK    6  A    between atoms: C_21  and  N_22
REMARK    7  A    between atoms: C_23  and  C_25
REMARK    8  A    between atoms: C_27  and  C_28
REMARK                            x       y       z     vdW  Elec       q    Type
REMARK                         _______ _______ _______ _____ _____    ______ ____
ROOT
ATOM      1  C   UNL     1      -1.128  -0.987  -0.075  0.00  0.00    -0.026 A 
ATOM      2  C   UNL     1      -1.466   0.215   0.553  0.00  0.00    +0.005 A 
ATOM      3  C   UNL     1      -2.800   0.496   0.878  0.00  0.00    +0.002 A 
ATOM      4  C   UNL     1      -3.815  -0.439   0.637  0.00  0.00    +0.023 A 
ATOM      5  C   UNL     1      -3.505  -1.644   0.022  0.00  0.00    +0.034 A 
ATOM      6  C   UNL     1      -2.183  -1.867  -0.376  0.00  0.00    +0.028 A 
ENDROOT
BRANCH   5   7
ATOM      7  N   UNL     1      -4.373  -2.738  -0.135  0.00  0.00    -0.281 N 
ATOM      8  C   UNL     1      -5.720  -2.898   0.039  0.00  0.00    +0.251 C 
ATOM      9  O   UNL     1      -6.185  -4.023   0.224  0.00  0.00    -0.270 OA
ATOM     10  H   UNL     1      -3.931  -3.633  -0.315  0.00  0.00    +0.155 HD
BRANCH   8  11
ATOM     11  C   UNL     1      -6.663  -1.783  -0.066  0.00  0.00    +0.073 A 
ATOM     12  C   UNL     1      -7.669  -1.662   0.902  0.00  0.00    +0.028 A 
ATOM     13  C   UNL     1      -8.663  -0.679   0.769  0.00  0.00    +0.056 A 
ATOM     14  C   UNL     1      -8.641   0.160  -0.358  0.00  0.00    +0.015 A 
ATOM     15  C   UNL     1      -7.647   0.020  -1.331  0.00  0.00    +0.039 A 
ATOM     16  C   UNL     1      -6.667  -0.957  -1.186  0.00  0.00    +0.136 A 
ATOM     17  F   UNL     1      -5.761  -1.107  -2.162  0.00  0.00    -0.205 F 
BRANCH  13  18
ATOM     18  C   UNL     1      -9.758  -0.573   1.805  0.00  0.00    +0.417 C 
ATOM     19  F   UNL     1     -10.647  -1.598   1.728  0.00  0.00    -0.166 F 
ATOM     20  F   UNL     1      -9.272  -0.586   3.077  0.00  0.00    -0.166 F 
ATOM     21  F   UNL     1     -10.489   0.571   1.698  0.00  0.00    -0.166 F 
ENDBRANCH  13  18
ENDBRANCH   8  11
ENDBRANCH   5   7
BRANCH   1  23
ATOM     22  C   UNL     1       1.263  -0.241  -0.623  0.00  0.00    +0.033 C 
ATOM     23  C   UNL     1       0.298  -1.419  -0.414  0.00  0.00    +0.099 C 
BRANCH  23  24
ATOM     24  N   UNL     1       0.887  -2.287   0.614  0.00  0.00    -0.322 N 
ATOM     25  H   UNL     1       1.312  -1.773   1.382  0.00  0.00    +0.148 HD
BRANCH  24  26
ATOM     26  C   UNL     1       0.281  -3.399   1.166  0.00  0.00    +0.130 A 
ATOM     27  N   UNL     1       0.291  -3.356   2.507  0.00  0.00    -0.220 NA
ATOM     28  C   UNL     1      -0.453  -4.261   3.137  0.00  0.00    +0.223 A 
ATOM     29  N   UNL     1      -1.234  -5.175   2.555  0.00  0.00    -0.235 NA
ATOM     30  C   UNL     1      -1.194  -5.275   1.209  0.00  0.00    +0.088 A 
ATOM     31  C   UNL     1      -1.996  -6.196   0.504  0.00  0.00    +0.063 A 
ATOM     32  C   UNL     1      -1.893  -6.340  -0.893  0.00  0.00    +0.015 A 
ATOM     33  C   UNL     1      -0.976  -5.591  -1.611  0.00  0.00    +0.002 A 
ATOM     34  C   UNL     1      -0.202  -4.654  -0.940  0.00  0.00    +0.013 A 
ATOM     35  C   UNL     1      -0.350  -4.436   0.455  0.00  0.00    +0.041 A 
BRANCH  31  36
ATOM     36  C   UNL     1      -3.034  -7.048   1.164  0.00  0.00    +0.244 C 
ATOM     37  N   UNL     1      -3.359  -6.787   2.461  0.00  0.00    -0.325 N 
ATOM     38  O   UNL     1      -3.609  -7.944   0.552  0.00  0.00    -0.270 OA
ATOM     39  H   UNL     1      -4.088  -7.328   2.902  0.00  0.00    +0.145 HD
ATOM     40  H   UNL     1      -2.866  -6.075   2.992  0.00  0.00    +0.145 HD
ENDBRANCH  31  36
ENDBRANCH  24  26
ENDBRANCH  23  24
ENDBRANCH   1  23
TORSDOF 7
