
 OpenBabel10152418493D

 38 41  0  0  1  0  0  0  0  0999 V2000
    9.7780  -11.6500   12.6800 C   0  0  0  0  0  0  0  0  0  0  0  0
   10.6770  -10.6880   13.1500 C   0  0  0  0  0  3  0  0  0  0  0  0
   10.2180   -9.5010   13.7210 C   0  0  0  0  0  3  0  0  0  0  0  0
    8.8510   -9.2970   13.9020 C   0  0  0  0  0  3  0  0  0  0  0  0
    7.9200  -10.2680   13.4980 C   0  0  0  0  0  0  0  0  0  0  0  0
    8.4000  -11.4260   12.8260 C   0  0  0  0  0  3  0  0  0  0  0  0
    9.9200  -14.1740   12.3610 C   0  0  0  0  0  0  0  0  0  0  0  0
   10.7730  -15.0490   12.5290 O   0  0  0  0  0  0  0  0  0  0  0  0
   10.3420  -12.8700   12.2540 N   0  0  0  0  0  0  0  0  0  0  0  0
   11.3000  -12.8170   11.9300 H   0  0  0  0  0  0  0  0  0  0  0  0
    6.3480  -14.8740   11.9660 C   0  0  0  0  0  0  0  0  0  0  0  0
    7.3970  -14.4570   12.8260 C   0  0  0  0  0  3  0  0  0  0  0  0
    8.5530  -14.5170   12.0820 C   0  0  0  0  0  0  0  0  0  0  0  0
    8.1290  -14.8640   10.8270 N   0  0  0  0  0  0  0  0  0  0  0  0
    6.8080  -15.0870   10.7250 N   0  0  0  0  0  0  0  0  0  0  0  0
    8.7020  -14.9400    9.9930 H   0  0  0  0  0  0  0  0  0  0  0  0
    4.6490  -15.0330   13.8260 C   0  0  0  0  0  1  0  0  0  0  0  0
    4.8980  -15.0730   12.3190 C   0  0  0  0  0  3  0  0  0  0  0  0
    3.9680  -14.1140   11.5760 C   0  0  0  0  0  1  0  0  0  0  0  0
    6.4480  -10.1700   13.9310 C   0  0  1  0  0  3  0  0  0  0  0  0
    5.9710   -8.7160   13.8420 C   0  0  0  0  0  1  0  0  0  0  0  0
    5.5500  -10.9800   13.1030 N   0  0  0  0  0  0  0  0  0  0  0  0
    4.8460  -11.5360   13.5560 H   0  0  0  0  0  0  0  0  0  0  0  0
    5.3070  -10.5130   11.8100 C   0  0  0  0  0  0  0  0  0  0  0  0
    4.1740  -10.9220   11.2140 N   0  0  0  0  0  0  0  0  0  0  0  0
    4.1860  -10.9560    9.8810 C   0  0  0  0  0  3  0  0  0  0  0  0
    5.2550  -10.7320    9.1190 N   0  0  0  0  0  0  0  0  0  0  0  0
    6.3680  -10.3150    9.7580 C   0  0  0  0  0  0  0  0  0  0  0  0
    7.6470  -10.4390    9.2130 C   0  0  1  0  0  3  0  0  0  0  0  0
    8.6700   -9.5570    9.5840 C   0  0  0  0  0  2  0  0  0  0  0  0
    8.5650   -8.9080   10.8020 C   0  0  0  0  0  3  0  0  0  0  0  0
    7.4720   -9.2100   11.6110 C   0  0  0  0  0  3  0  0  0  0  0  0
    6.3730   -9.9530   11.0930 C   0  0  0  0  0  0  0  0  0  0  0  0
    8.0460  -11.8930    9.2320 C   0  0  0  0  0  0  0  0  0  0  0  0
    7.1390  -12.8580    8.8760 N   0  0  0  0  0  0  0  0  0  0  0  0
    9.2050  -12.2380    9.3950 O   0  0  0  0  0  0  0  0  0  0  0  0
    7.5240  -13.7880    8.7570 H   0  0  0  0  0  0  0  0  0  0  0  0
    6.2000  -12.6900    8.5620 H   0  0  0  0  0  0  0  0  0  0  0  0
  1  6  2  0  0  0  0
  1  2  1  0  0  0  0
  2  3  2  0  0  0  0
  3  4  1  0  0  0  0
  5  4  2  0  0  0  0
  5 20  1  0  0  0  0
  6  5  1  0  0  0  0
  7  8  2  0  0  0  0
  9  7  1  0  0  0  0
  9  1  1  0  0  0  0
 10  9  1  0  0  0  0
 11 18  1  0  0  0  0
 11 12  1  0  0  0  0
 13  7  1  0  0  0  0
 13 12  2  0  0  0  0
 14 13  1  0  0  0  0
 15 14  1  0  0  0  0
 15 11  2  0  0  0  0
 16 14  1  0  0  0  0
 18 17  1  0  0  0  0
 19 18  1  0  0  0  0
 20 21  1  6  0  0  0
 22 23  1  0  0  0  0
 22 20  1  0  0  0  0
 24 22  1  0  0  0  0
 25 24  1  0  0  0  0
 26 25  2  0  0  0  0
 27 28  2  0  0  0  0
 27 26  1  0  0  0  0
 28 33  1  0  0  0  0
 29 34  1  1  0  0  0
 29 30  1  0  0  0  0
 29 28  1  0  0  0  0
 30 31  1  0  0  0  0
 31 32  2  0  0  0  0
 33 32  1  0  0  0  0
 33 24  2  0  0  0  0
 34 36  2  0  0  0  0
 35 34  1  0  0  0  0
 37 35  1  0  0  0  0
 38 35  1  0  0  0  0
M  END
>  <minimizedAffinity>
4.25449228

$$$$

 OpenBabel10152418493D

 38 41  0  0  1  0  0  0  0  0999 V2000
    4.7460  -11.7360   10.2510 C   0  0  0  0  0  0  0  0  0  0  0  0
    4.5300  -12.0580    8.9080 C   0  0  0  0  0  3  0  0  0  0  0  0
    5.0360  -11.2500    7.8900 C   0  0  0  0  0  3  0  0  0  0  0  0
    5.8340  -10.1510    8.2030 C   0  0  0  0  0  3  0  0  0  0  0  0
    6.1250   -9.8320    9.5400 C   0  0  0  0  0  0  0  0  0  0  0  0
    5.5170  -10.6060   10.5670 C   0  0  0  0  0  3  0  0  0  0  0  0
    4.7190  -13.9800   11.4570 C   0  0  0  0  0  0  0  0  0  0  0  0
    3.8630  -14.7960   11.8080 O   0  0  0  0  0  0  0  0  0  0  0  0
    4.3170  -12.6920   11.1940 N   0  0  0  0  0  0  0  0  0  0  0  0
    3.4650  -12.4620   11.6910 H   0  0  0  0  0  0  0  0  0  0  0  0
    8.2350  -14.8550   11.9750 C   0  0  0  0  0  0  0  0  0  0  0  0
    7.0010  -14.4700   12.5590 C   0  0  0  0  0  3  0  0  0  0  0  0
    6.1170  -14.3040   11.5170 C   0  0  0  0  0  0  0  0  0  0  0  0
    6.8260  -14.6820   10.4090 N   0  0  0  0  0  0  0  0  0  0  0  0
    8.1060  -15.0180   10.6510 N   0  0  0  0  0  0  0  0  0  0  0  0
    6.4760  -14.7520    9.4590 H   0  0  0  0  0  0  0  0  0  0  0  0
   10.7410  -15.0180   11.7180 C   0  0  0  0  0  1  0  0  0  0  0  0
    9.5510  -15.0710   12.6740 C   0  0  0  0  0  3  0  0  0  0  0  0
    9.7540  -14.1320   13.8640 C   0  0  0  0  0  1  0  0  0  0  0  0
    7.2080   -8.7960    9.8800 C   0  0  1  0  0  3  0  0  0  0  0  0
    7.4350   -8.7520   11.3950 C   0  0  0  0  0  1  0  0  0  0  0  0
    8.4990   -9.0860    9.2490 N   0  0  0  0  0  0  0  0  0  0  0  0
    9.0050   -8.3330    8.8160 H   0  0  0  0  0  0  0  0  0  0  0  0
    9.2160  -10.1640    9.7680 C   0  0  0  0  0  0  0  0  0  0  0  0
    8.9980  -11.3700    9.2160 N   0  0  0  0  0  0  0  0  0  0  0  0
    9.2180  -12.4270    9.9970 C   0  0  0  0  0  3  0  0  0  0  0  0
    9.5180  -12.3720   11.2940 N   0  0  0  0  0  0  0  0  0  0  0  0
    9.7380  -11.1420   11.8050 C   0  0  0  0  0  0  0  0  0  0  0  0
    9.6430  -10.8600   13.1690 C   0  0  1  0  0  3  0  0  0  0  0  0
   10.3740   -9.8070   13.7320 C   0  0  0  0  0  3  0  0  0  0  0  0
   10.7850   -8.7770   12.9030 C   0  0  0  0  0  3  0  0  0  0  0  0
   10.4010   -8.8240   11.5650 C   0  0  0  0  0  2  0  0  0  0  0  0
    9.8370  -10.0110   11.0160 C   0  0  0  0  0  0  0  0  0  0  0  0
    8.1900  -10.8910   13.5730 C   0  0  0  0  0  0  0  0  0  0  0  0
    7.4650   -9.7280   13.6160 N   0  0  0  0  0  0  0  0  0  0  0  0
    7.5840  -11.9420   13.7050 O   0  0  0  0  0  0  0  0  0  0  0  0
    6.4650   -9.8480   13.7360 H   0  0  0  0  0  0  0  0  0  0  0  0
    7.8060   -8.8160   13.3690 H   0  0  0  0  0  0  0  0  0  0  0  0
  1  6  1  0  0  0  0
  1  9  1  0  0  0  0
  2  1  2  0  0  0  0
  3  4  2  0  0  0  0
  3  2  1  0  0  0  0
  4  5  1  0  0  0  0
  5 20  1  0  0  0  0
  5  6  2  0  0  0  0
  7 13  1  0  0  0  0
  7  8  2  0  0  0  0
  9  7  1  0  0  0  0
  9 10  1  0  0  0  0
 11 12  1  0  0  0  0
 11 18  1  0  0  0  0
 13 12  2  0  0  0  0
 14 15  1  0  0  0  0
 14 13  1  0  0  0  0
 15 11  2  0  0  0  0
 16 14  1  0  0  0  0
 17 18  1  0  0  0  0
 18 19  1  0  0  0  0
 20 21  1  1  0  0  0
 22 24  1  0  0  0  0
 22 20  1  0  0  0  0
 23 22  1  0  0  0  0
 24 33  1  0  0  0  0
 25 24  2  0  0  0  0
 25 26  1  0  0  0  0
 26 27  2  0  0  0  0
 27 28  1  0  0  0  0
 28 29  1  0  0  0  0
 29 34  1  6  0  0  0
 29 30  1  0  0  0  0
 31 30  2  0  0  0  0
 32 31  1  0  0  0  0
 33 32  1  0  0  0  0
 33 28  2  0  0  0  0
 34 35  1  0  0  0  0
 34 36  2  0  0  0  0
 35 37  1  0  0  0  0
 38 35  1  0  0  0  0
M  END
>  <minimizedAffinity>
6.49097586

$$$$
