
 OpenBabel10152418493D

 38 41  0  0  1  0  0  0  0  0999 V2000
    4.7460  -11.7360   10.2510 C   0  0  0  0  0  0  0  0  0  0  0  0
    4.5300  -12.0580    8.9080 C   0  0  0  0  0  3  0  0  0  0  0  0
    5.0360  -11.2500    7.8900 C   0  0  0  0  0  3  0  0  0  0  0  0
    5.8340  -10.1510    8.2030 C   0  0  0  0  0  3  0  0  0  0  0  0
    6.1250   -9.8320    9.5400 C   0  0  0  0  0  0  0  0  0  0  0  0
    5.5170  -10.6060   10.5670 C   0  0  0  0  0  3  0  0  0  0  0  0
    4.7190  -13.9800   11.4570 C   0  0  0  0  0  0  0  0  0  0  0  0
    3.8630  -14.7960   11.8080 O   0  0  0  0  0  0  0  0  0  0  0  0
    4.3170  -12.6920   11.1940 N   0  0  0  0  0  0  0  0  0  0  0  0
    3.4650  -12.4620   11.6910 H   0  0  0  0  0  0  0  0  0  0  0  0
    8.2350  -14.8550   11.9750 C   0  0  0  0  0  0  0  0  0  0  0  0
    7.0010  -14.4700   12.5590 C   0  0  0  0  0  3  0  0  0  0  0  0
    6.1170  -14.3040   11.5170 C   0  0  0  0  0  0  0  0  0  0  0  0
    6.8260  -14.6820   10.4090 N   0  0  0  0  0  0  0  0  0  0  0  0
    8.1060  -15.0180   10.6510 N   0  0  0  0  0  0  0  0  0  0  0  0
    6.4760  -14.7520    9.4590 H   0  0  0  0  0  0  0  0  0  0  0  0
   10.7410  -15.0180   11.7180 C   0  0  0  0  0  1  0  0  0  0  0  0
    9.5510  -15.0710   12.6740 C   0  0  0  0  0  3  0  0  0  0  0  0
    9.7540  -14.1320   13.8640 C   0  0  0  0  0  1  0  0  0  0  0  0
    7.2080   -8.7960    9.8800 C   0  0  1  0  0  3  0  0  0  0  0  0
    7.4350   -8.7520   11.3950 C   0  0  0  0  0  1  0  0  0  0  0  0
    8.4990   -9.0860    9.2490 N   0  0  0  0  0  0  0  0  0  0  0  0
    9.0050   -8.3330    8.8160 H   0  0  0  0  0  0  0  0  0  0  0  0
    9.2160  -10.1640    9.7680 C   0  0  0  0  0  0  0  0  0  0  0  0
    8.9980  -11.3700    9.2160 N   0  0  0  0  0  0  0  0  0  0  0  0
    9.2180  -12.4270    9.9970 C   0  0  0  0  0  3  0  0  0  0  0  0
    9.5180  -12.3720   11.2940 N   0  0  0  0  0  0  0  0  0  0  0  0
    9.7380  -11.1420   11.8050 C   0  0  0  0  0  0  0  0  0  0  0  0
    9.6430  -10.8600   13.1690 C   0  0  1  0  0  3  0  0  0  0  0  0
   10.3740   -9.8070   13.7320 C   0  0  0  0  0  3  0  0  0  0  0  0
   10.7850   -8.7770   12.9030 C   0  0  0  0  0  3  0  0  0  0  0  0
   10.4010   -8.8240   11.5650 C   0  0  0  0  0  2  0  0  0  0  0  0
    9.8370  -10.0110   11.0160 C   0  0  0  0  0  0  0  0  0  0  0  0
    8.1900  -10.8910   13.5730 C   0  0  0  0  0  0  0  0  0  0  0  0
    7.4650   -9.7280   13.6160 N   0  0  0  0  0  0  0  0  0  0  0  0
    7.5840  -11.9420   13.7050 O   0  0  0  0  0  0  0  0  0  0  0  0
    6.4650   -9.8480   13.7360 H   0  0  0  0  0  0  0  0  0  0  0  0
    7.8060   -8.8160   13.3690 H   0  0  0  0  0  0  0  0  0  0  0  0
  1  6  1  0  0  0  0
  1  9  1  0  0  0  0
  2  1  2  0  0  0  0
  3  4  2  0  0  0  0
  3  2  1  0  0  0  0
  4  5  1  0  0  0  0
  5 20  1  0  0  0  0
  5  6  2  0  0  0  0
  7 13  1  0  0  0  0
  7  8  2  0  0  0  0
  9  7  1  0  0  0  0
  9 10  1  0  0  0  0
 11 12  1  0  0  0  0
 11 18  1  0  0  0  0
 13 12  2  0  0  0  0
 14 15  1  0  0  0  0
 14 13  1  0  0  0  0
 15 11  2  0  0  0  0
 16 14  1  0  0  0  0
 17 18  1  0  0  0  0
 18 19  1  0  0  0  0
 20 21  1  1  0  0  0
 22 24  1  0  0  0  0
 22 20  1  0  0  0  0
 23 22  1  0  0  0  0
 24 33  1  0  0  0  0
 25 24  2  0  0  0  0
 25 26  1  0  0  0  0
 26 27  2  0  0  0  0
 27 28  1  0  0  0  0
 28 29  1  0  0  0  0
 29 34  1  6  0  0  0
 29 30  1  0  0  0  0
 31 30  2  0  0  0  0
 32 31  1  0  0  0  0
 33 32  1  0  0  0  0
 33 28  2  0  0  0  0
 34 35  1  0  0  0  0
 34 36  2  0  0  0  0
 35 37  1  0  0  0  0
 38 35  1  0  0  0  0
M  END
>  <minimizedAffinity>
6.49097586

$$$$
