
 OpenBabel10152418493D

 38 41  0  0  1  0  0  0  0  0999 V2000
    9.7780  -11.6500   12.6800 C   0  0  0  0  0  0  0  0  0  0  0  0
   10.6770  -10.6880   13.1500 C   0  0  0  0  0  3  0  0  0  0  0  0
   10.2180   -9.5010   13.7210 C   0  0  0  0  0  3  0  0  0  0  0  0
    8.8510   -9.2970   13.9020 C   0  0  0  0  0  3  0  0  0  0  0  0
    7.9200  -10.2680   13.4980 C   0  0  0  0  0  0  0  0  0  0  0  0
    8.4000  -11.4260   12.8260 C   0  0  0  0  0  3  0  0  0  0  0  0
    9.9200  -14.1740   12.3610 C   0  0  0  0  0  0  0  0  0  0  0  0
   10.7730  -15.0490   12.5290 O   0  0  0  0  0  0  0  0  0  0  0  0
   10.3420  -12.8700   12.2540 N   0  0  0  0  0  0  0  0  0  0  0  0
   11.3000  -12.8170   11.9300 H   0  0  0  0  0  0  0  0  0  0  0  0
    6.3480  -14.8740   11.9660 C   0  0  0  0  0  0  0  0  0  0  0  0
    7.3970  -14.4570   12.8260 C   0  0  0  0  0  3  0  0  0  0  0  0
    8.5530  -14.5170   12.0820 C   0  0  0  0  0  0  0  0  0  0  0  0
    8.1290  -14.8640   10.8270 N   0  0  0  0  0  0  0  0  0  0  0  0
    6.8080  -15.0870   10.7250 N   0  0  0  0  0  0  0  0  0  0  0  0
    8.7020  -14.9400    9.9930 H   0  0  0  0  0  0  0  0  0  0  0  0
    4.6490  -15.0330   13.8260 C   0  0  0  0  0  1  0  0  0  0  0  0
    4.8980  -15.0730   12.3190 C   0  0  0  0  0  3  0  0  0  0  0  0
    3.9680  -14.1140   11.5760 C   0  0  0  0  0  1  0  0  0  0  0  0
    6.4480  -10.1700   13.9310 C   0  0  1  0  0  3  0  0  0  0  0  0
    5.9710   -8.7160   13.8420 C   0  0  0  0  0  1  0  0  0  0  0  0
    5.5500  -10.9800   13.1030 N   0  0  0  0  0  0  0  0  0  0  0  0
    4.8460  -11.5360   13.5560 H   0  0  0  0  0  0  0  0  0  0  0  0
    5.3070  -10.5130   11.8100 C   0  0  0  0  0  0  0  0  0  0  0  0
    4.1740  -10.9220   11.2140 N   0  0  0  0  0  0  0  0  0  0  0  0
    4.1860  -10.9560    9.8810 C   0  0  0  0  0  3  0  0  0  0  0  0
    5.2550  -10.7320    9.1190 N   0  0  0  0  0  0  0  0  0  0  0  0
    6.3680  -10.3150    9.7580 C   0  0  0  0  0  0  0  0  0  0  0  0
    7.6470  -10.4390    9.2130 C   0  0  1  0  0  3  0  0  0  0  0  0
    8.6700   -9.5570    9.5840 C   0  0  0  0  0  2  0  0  0  0  0  0
    8.5650   -8.9080   10.8020 C   0  0  0  0  0  3  0  0  0  0  0  0
    7.4720   -9.2100   11.6110 C   0  0  0  0  0  3  0  0  0  0  0  0
    6.3730   -9.9530   11.0930 C   0  0  0  0  0  0  0  0  0  0  0  0
    8.0460  -11.8930    9.2320 C   0  0  0  0  0  0  0  0  0  0  0  0
    7.1390  -12.8580    8.8760 N   0  0  0  0  0  0  0  0  0  0  0  0
    9.2050  -12.2380    9.3950 O   0  0  0  0  0  0  0  0  0  0  0  0
    7.5240  -13.7880    8.7570 H   0  0  0  0  0  0  0  0  0  0  0  0
    6.2000  -12.6900    8.5620 H   0  0  0  0  0  0  0  0  0  0  0  0
  1  6  2  0  0  0  0
  1  2  1  0  0  0  0
  2  3  2  0  0  0  0
  3  4  1  0  0  0  0
  5  4  2  0  0  0  0
  5 20  1  0  0  0  0
  6  5  1  0  0  0  0
  7  8  2  0  0  0  0
  9  7  1  0  0  0  0
  9  1  1  0  0  0  0
 10  9  1  0  0  0  0
 11 18  1  0  0  0  0
 11 12  1  0  0  0  0
 13  7  1  0  0  0  0
 13 12  2  0  0  0  0
 14 13  1  0  0  0  0
 15 14  1  0  0  0  0
 15 11  2  0  0  0  0
 16 14  1  0  0  0  0
 18 17  1  0  0  0  0
 19 18  1  0  0  0  0
 20 21  1  6  0  0  0
 22 23  1  0  0  0  0
 22 20  1  0  0  0  0
 24 22  1  0  0  0  0
 25 24  1  0  0  0  0
 26 25  2  0  0  0  0
 27 28  2  0  0  0  0
 27 26  1  0  0  0  0
 28 33  1  0  0  0  0
 29 34  1  1  0  0  0
 29 30  1  0  0  0  0
 29 28  1  0  0  0  0
 30 31  1  0  0  0  0
 31 32  2  0  0  0  0
 33 32  1  0  0  0  0
 33 24  2  0  0  0  0
 34 36  2  0  0  0  0
 35 34  1  0  0  0  0
 37 35  1  0  0  0  0
 38 35  1  0  0  0  0
M  END
>  <minimizedAffinity>
4.25449228

$$$$
