REMARK  Name = 
REMARK  10 active torsions:
REMARK  status: ('A' for Active; 'I' for Inactive)
REMARK    1  A    between atoms: C_1  and  C_2
REMARK    2  A    between atoms: C_2  and  C_3
REMARK    3  A    between atoms: C_2  and  C_4
REMARK    4  A    between atoms: C_6  and  C_7
REMARK    5  A    between atoms: N_9  and  C_10
REMARK    6  A    between atoms: C_14  and  C_15
REMARK    7  A    between atoms: C_15  and  C_16
REMARK    8  A    between atoms: C_15  and  N_17
REMARK    9  A    between atoms: N_17  and  C_18
REMARK   10  A    between atoms: C_23  and  C_24
REMARK                            x       y       z     vdW  Elec       q    Type
REMARK                         _______ _______ _______ _____ _____    ______ ____
ROOT
ATOM      1  C   UNL     1      -2.126  -4.004   1.815  0.00  0.00    +0.034 A 
ATOM      2  C   UNL     1      -1.837  -5.176   1.109  0.00  0.00    +0.023 A 
ATOM      3  C   UNL     1      -0.698  -5.924   1.404  0.00  0.00    +0.002 A 
ATOM      4  C   UNL     1       0.126  -5.552   2.465  0.00  0.00    +0.005 A 
ATOM      5  C   UNL     1      -0.166  -4.415   3.237  0.00  0.00    -0.026 A 
ATOM      6  C   UNL     1      -1.274  -3.608   2.858  0.00  0.00    +0.028 A 
ENDROOT
BRANCH   1   9
ATOM      7  C   UNL     1      -3.864  -2.142   1.768  0.00  0.00    +0.266 C 
ATOM      8  O   UNL     1      -5.059  -2.027   2.051  0.00  0.00    -0.268 OA
ATOM      9  N   UNL     1      -3.371  -3.404   1.537  0.00  0.00    -0.280 N 
ATOM     10  H   UNL     1      -4.102  -4.037   1.236  0.00  0.00    +0.155 HD
BRANCH   7  13
ATOM     11  C   UNL     1      -1.618   0.587   0.813  0.00  0.00    +0.066 A 
ATOM     12  C   UNL     1      -1.876  -0.808   0.803  0.00  0.00    +0.057 A 
ATOM     13  C   UNL     1      -3.057  -0.987   1.487  0.00  0.00    +0.121 A 
ATOM     14  N   UNL     1      -3.476   0.284   1.775  0.00  0.00    -0.272 N 
ATOM     15  N   UNL     1      -2.631   1.254   1.384  0.00  0.00    -0.178 NA
ATOM     16  H   UNL     1      -4.349   0.549   2.220  0.00  0.00    +0.189 HD
BRANCH  11  18
ATOM     17  C   UNL     1      -0.591   1.786  -1.156  0.00  0.00    +0.014 C 
ATOM     18  C   UNL     1      -0.403   1.298   0.279  0.00  0.00    +0.033 C 
ATOM     19  C   UNL     1       0.074   2.428   1.192  0.00  0.00    +0.014 C 
ENDBRANCH  11  18
ENDBRANCH   7  13
ENDBRANCH   1   9
BRANCH   5  20
ATOM     20  C   UNL     1       0.577  -4.153   4.557  0.00  0.00    +0.099 C 
ATOM     21  C   UNL     1       0.235  -5.245   5.577  0.00  0.00    +0.033 C 
BRANCH  20  22
ATOM     22  N   UNL     1       2.034  -4.135   4.402  0.00  0.00    -0.322 N 
ATOM     23  H   UNL     1       2.493  -4.961   4.058  0.00  0.00    +0.148 HD
BRANCH  22  24
ATOM     24  C   UNL     1       2.618  -2.892   4.156  0.00  0.00    +0.130 A 
ATOM     25  N   UNL     1       2.137  -1.841   4.842  0.00  0.00    -0.220 NA
ATOM     26  C   UNL     1       2.269  -0.647   4.265  0.00  0.00    +0.223 A 
ATOM     27  N   UNL     1       2.726  -0.439   3.031  0.00  0.00    -0.235 NA
ATOM     28  C   UNL     1       3.207  -1.520   2.382  0.00  0.00    +0.088 A 
ATOM     29  C   UNL     1       3.324  -1.580   0.992  0.00  0.00    +0.063 A 
ATOM     30  C   UNL     1       4.283  -2.405   0.391  0.00  0.00    +0.015 A 
ATOM     31  C   UNL     1       4.758  -3.488   1.110  0.00  0.00    +0.002 A 
ATOM     32  C   UNL     1       4.215  -3.724   2.371  0.00  0.00    +0.013 A 
ATOM     33  C   UNL     1       3.400  -2.741   3.002  0.00  0.00    +0.041 A 
BRANCH  29  34
ATOM     34  C   UNL     1       1.945  -1.694   0.392  0.00  0.00    +0.244 C 
ATOM     35  N   UNL     1       1.781  -2.247  -0.852  0.00  0.00    -0.325 N 
ATOM     36  O   UNL     1       0.941  -1.461   1.045  0.00  0.00    -0.270 OA
ATOM     37  H   UNL     1       0.821  -2.437  -1.116  0.00  0.00    +0.145 HD
ATOM     38  H   UNL     1       2.514  -2.629  -1.423  0.00  0.00    +0.145 HD
ENDBRANCH  29  34
ENDBRANCH  22  24
ENDBRANCH  20  22
ENDBRANCH   5  20
TORSDOF 7
