
 OpenBabel10152418103D

 29 32  0  0  0  0  0  0  0  0999 V2000
    2.8890   -7.5170  -27.4840 C   0  0  0  0  0  0  0  0  0  0  0  0
    1.7780   -7.6490  -26.7260 N   0  0  0  0  0  0  0  0  0  0  0  0
    0.7370   -6.8590  -27.0210 C   0  0  0  0  0  0  0  0  0  0  0  0
   -0.4820   -6.9900  -26.3640 N   0  0  0  0  0  0  0  0  0  0  0  0
    0.7520   -5.9640  -28.0260 N   0  0  0  0  0  0  0  0  0  0  0  0
    1.8810   -5.8780  -28.7640 C   0  0  0  0  0  3  0  0  0  0  0  0
    2.9930   -6.6540  -28.5530 C   0  0  0  0  0  0  0  0  0  0  0  0
    4.3580   -6.5440  -29.5830 Cl  0  0  0  0  0  0  0  0  0  0  0  0
   -1.1810   -6.4200  -26.8150 H   0  0  0  0  0  0  0  0  0  0  0  0
   -0.8790   -7.7680  -25.2740 C   0  0  0  0  0  0  0  0  0  0  0  0
   -1.1410   -9.1310  -25.4750 C   0  0  0  0  0  3  0  0  0  0  0  0
   -1.4530   -9.9780  -24.4030 C   0  0  0  0  0  3  0  0  0  0  0  0
   -1.5200   -9.4760  -23.0990 C   0  0  0  0  0  0  0  0  0  0  0  0
   -1.2870   -8.1130  -22.8970 C   0  0  0  0  0  3  0  0  0  0  0  0
   -0.9490   -7.2760  -23.9690 C   0  0  0  0  0  3  0  0  0  0  0  0
   -1.8150  -10.3330  -21.9590 C   0  0  0  0  0  0  0  0  0  0  0  0
   -2.6900  -10.1270  -20.9930 N   0  0  0  0  0  0  0  0  0  0  0  0
   -2.5830  -11.1960  -20.1340 N   0  0  0  0  0  0  0  0  0  0  0  0
   -1.6460  -12.0390  -20.5410 N   0  0  0  0  0  0  0  0  0  0  0  0
   -1.1630  -11.5000  -21.6660 N   0  0  0  0  0  0  0  0  0  0  0  0
   -0.3970  -11.9500  -22.1480 H   0  0  0  0  0  0  0  0  0  0  0  0
    3.8790   -8.4370  -27.2230 O   0  0  0  0  0  0  0  0  0  0  0  0
    2.8240  -10.9150  -26.0680 F   0  0  0  0  0  0  0  0  0  0  0  0
    3.3290  -10.8570  -27.3090 C   0  0  0  0  0  0  0  0  0  0  0  0
    3.3620  -12.0380  -28.0490 C   0  0  0  0  0  3  0  0  0  0  0  0
    3.8840  -12.0390  -29.3420 C   0  0  0  0  0  3  0  0  0  0  0  0
    4.3680  -10.8530  -29.8920 C   0  0  0  0  0  3  0  0  0  0  0  0
    4.3360   -9.6730  -29.1460 C   0  0  0  0  0  3  0  0  0  0  0  0
    3.8220   -9.6650  -27.8440 C   0  0  0  0  0  0  0  0  0  0  0  0
  1 22  1  0  0  0  0
  1  2  2  0  0  0  0
  3  2  1  0  0  0  0
  3  4  1  0  0  0  0
  4 10  1  0  0  0  0
  5  3  2  0  0  0  0
  6  7  2  0  0  0  0
  6  5  1  0  0  0  0
  7  1  1  0  0  0  0
  8  7  1  0  0  0  0
  9  4  1  0  0  0  0
 10 15  1  0  0  0  0
 11 10  2  0  0  0  0
 11 12  1  0  0  0  0
 12 13  2  0  0  0  0
 13 14  1  0  0  0  0
 13 16  1  0  0  0  0
 15 14  2  0  0  0  0
 16 20  1  0  0  0  0
 16 17  2  0  0  0  0
 17 18  1  0  0  0  0
 19 18  2  0  0  0  0
 20 19  1  0  0  0  0
 21 20  1  0  0  0  0
 24 23  1  0  0  0  0
 25 24  2  0  0  0  0
 26 25  1  0  0  0  0
 27 26  2  0  0  0  0
 27 28  1  0  0  0  0
 28 29  2  0  0  0  0
 29 24  1  0  0  0  0
 29 22  1  0  0  0  0
M  END
>  <minimizedAffinity>
-7.70721865

$$$$
