
 OpenBabel10152418103D

 29 32  0  0  0  0  0  0  0  0999 V2000
   -1.6960  -10.3310  -22.1260 C   0  0  0  0  0  0  0  0  0  0  0  0
   -1.3460   -9.1370  -22.6530 N   0  0  0  0  0  0  0  0  0  0  0  0
   -1.4150   -8.0680  -21.8480 C   0  0  0  0  0  0  0  0  0  0  0  0
   -0.9810   -6.8150  -22.2680 N   0  0  0  0  0  0  0  0  0  0  0  0
   -1.8030   -8.1370  -20.5620 N   0  0  0  0  0  0  0  0  0  0  0  0
   -2.1300   -9.3560  -20.0770 C   0  0  0  0  0  3  0  0  0  0  0  0
   -2.0760  -10.5120  -20.8150 C   0  0  0  0  0  0  0  0  0  0  0  0
   -2.4280  -12.0320  -20.1070 Cl  0  0  0  0  0  0  0  0  0  0  0  0
   -0.9710   -6.1730  -21.4900 H   0  0  0  0  0  0  0  0  0  0  0  0
   -0.5440   -6.3420  -23.5070 C   0  0  0  0  0  0  0  0  0  0  0  0
    0.1290   -7.2220  -24.3680 C   0  0  0  0  0  3  0  0  0  0  0  0
    0.5080   -6.8290  -25.6590 C   0  0  0  0  0  3  0  0  0  0  0  0
    0.2300   -5.5370  -26.1180 C   0  0  0  0  0  0  0  0  0  0  0  0
   -0.4170   -4.6480  -25.2540 C   0  0  0  0  0  3  0  0  0  0  0  0
   -0.8160   -5.0540  -23.9750 C   0  0  0  0  0  3  0  0  0  0  0  0
    0.5850   -5.1040  -27.4630 C   0  0  0  0  0  0  0  0  0  0  0  0
    0.1210   -5.5580  -28.6110 N   0  0  0  0  0  0  0  0  0  0  0  0
    0.7750   -4.8620  -29.6000 N   0  0  0  0  0  0  0  0  0  0  0  0
    1.6460   -4.0090  -29.0820 N   0  0  0  0  0  0  0  0  0  0  0  0
    1.5360   -4.1650  -27.7580 N   0  0  0  0  0  0  0  0  0  0  0  0
    2.1390   -3.6410  -27.1390 H   0  0  0  0  0  0  0  0  0  0  0  0
   -1.4850  -11.4110  -22.9540 O   0  0  0  0  0  0  0  0  0  0  0  0
   -2.2990  -11.0180  -25.7410 F   0  0  0  0  0  0  0  0  0  0  0  0
   -1.0120  -11.0800  -25.3690 C   0  0  0  0  0  0  0  0  0  0  0  0
   -0.0440  -10.9740  -26.3670 C   0  0  0  0  0  3  0  0  0  0  0  0
    1.3100  -11.0410  -26.0380 C   0  0  0  0  0  3  0  0  0  0  0  0
    1.6900  -11.2100  -24.7080 C   0  0  0  0  0  3  0  0  0  0  0  0
    0.7180  -11.3190  -23.7120 C   0  0  0  0  0  3  0  0  0  0  0  0
   -0.6440  -11.2630  -24.0340 C   0  0  0  0  0  0  0  0  0  0  0  0
  1  7  1  0  0  0  0
  2  1  2  0  0  0  0
  2  3  1  0  0  0  0
  3  5  2  0  0  0  0
  4  3  1  0  0  0  0
  4  9  1  0  0  0  0
  5  6  1  0  0  0  0
  7  8  1  0  0  0  0
  7  6  2  0  0  0  0
 10  4  1  0  0  0  0
 11 10  2  0  0  0  0
 12 11  1  0  0  0  0
 13 12  2  0  0  0  0
 13 14  1  0  0  0  0
 14 15  2  0  0  0  0
 15 10  1  0  0  0  0
 16 13  1  0  0  0  0
 17 16  2  0  0  0  0
 18 19  2  0  0  0  0
 18 17  1  0  0  0  0
 19 20  1  0  0  0  0
 20 16  1  0  0  0  0
 20 21  1  0  0  0  0
 22  1  1  0  0  0  0
 23 24  1  0  0  0  0
 24 29  1  0  0  0  0
 25 26  1  0  0  0  0
 25 24  2  0  0  0  0
 26 27  2  0  0  0  0
 27 28  1  0  0  0  0
 29 28  2  0  0  0  0
 29 22  1  0  0  0  0
M  END
>  <minimizedAffinity>
-6.6143055

$$$$
