
 OpenBabel10152418103D

 29 32  0  0  0  0  0  0  0  0999 V2000
    2.9690   -7.4570  -27.7970 C   0  0  0  0  0  0  0  0  0  0  0  0
    1.9360   -7.1570  -26.9780 N   0  0  0  0  0  0  0  0  0  0  0  0
    1.0790   -6.2150  -27.3920 C   0  0  0  0  0  0  0  0  0  0  0  0
   -0.0680   -5.9090  -26.6660 N   0  0  0  0  0  0  0  0  0  0  0  0
    1.1980   -5.5750  -28.5690 N   0  0  0  0  0  0  0  0  0  0  0  0
    2.2390   -5.9180  -29.3600 C   0  0  0  0  0  3  0  0  0  0  0  0
    3.1600   -6.8820  -29.0350 C   0  0  0  0  0  0  0  0  0  0  0  0
    4.4070   -7.3200  -30.1260 Cl  0  0  0  0  0  0  0  0  0  0  0  0
   -0.6590   -5.2900  -27.1980 H   0  0  0  0  0  0  0  0  0  0  0  0
   -0.5230   -6.3270  -25.4140 C   0  0  0  0  0  0  0  0  0  0  0  0
   -1.2610   -7.5160  -25.3250 C   0  0  0  0  0  3  0  0  0  0  0  0
   -1.6630   -8.0330  -24.0850 C   0  0  0  0  0  3  0  0  0  0  0  0
   -1.3430   -7.3620  -22.9000 C   0  0  0  0  0  0  0  0  0  0  0  0
   -0.6310   -6.1610  -22.9850 C   0  0  0  0  0  3  0  0  0  0  0  0
   -0.2090   -5.6640  -24.2250 C   0  0  0  0  0  3  0  0  0  0  0  0
   -1.7210   -7.8830  -21.5940 C   0  0  0  0  0  0  0  0  0  0  0  0
   -1.6640   -9.1310  -21.1700 N   0  0  0  0  0  0  0  0  0  0  0  0
   -2.1550   -9.1300  -19.8850 N   0  0  0  0  0  0  0  0  0  0  0  0
   -2.5330   -7.9130  -19.5230 N   0  0  0  0  0  0  0  0  0  0  0  0
   -2.2730   -7.1410  -20.5840 N   0  0  0  0  0  0  0  0  0  0  0  0
   -2.5180   -6.1610  -20.5630 H   0  0  0  0  0  0  0  0  0  0  0  0
    3.7430   -8.5170  -27.3850 O   0  0  0  0  0  0  0  0  0  0  0  0
    2.3240   -8.6040  -24.8230 F   0  0  0  0  0  0  0  0  0  0  0  0
    2.4480   -9.6790  -25.6150 C   0  0  0  0  0  0  0  0  0  0  0  0
    1.8890  -10.8770  -25.1700 C   0  0  0  0  0  3  0  0  0  0  0  0
    1.9950  -12.0300  -25.9490 C   0  0  0  0  0  3  0  0  0  0  0  0
    2.6560  -11.9770  -27.1740 C   0  0  0  0  0  3  0  0  0  0  0  0
    3.2160  -10.7760  -27.6150 C   0  0  0  0  0  3  0  0  0  0  0  0
    3.1230   -9.6160  -26.8360 C   0  0  0  0  0  0  0  0  0  0  0  0
  1 22  1  0  0  0  0
  1  2  2  0  0  0  0
  3  2  1  0  0  0  0
  3  4  1  0  0  0  0
  4 10  1  0  0  0  0
  5  3  2  0  0  0  0
  6  7  2  0  0  0  0
  6  5  1  0  0  0  0
  7  1  1  0  0  0  0
  8  7  1  0  0  0  0
  9  4  1  0  0  0  0
 10 11  2  0  0  0  0
 10 15  1  0  0  0  0
 11 12  1  0  0  0  0
 12 13  2  0  0  0  0
 13 16  1  0  0  0  0
 14 13  1  0  0  0  0
 15 14  2  0  0  0  0
 16 17  2  0  0  0  0
 16 20  1  0  0  0  0
 17 18  1  0  0  0  0
 18 19  2  0  0  0  0
 20 21  1  0  0  0  0
 20 19  1  0  0  0  0
 22 29  1  0  0  0  0
 24 25  1  0  0  0  0
 24 23  1  0  0  0  0
 26 25  2  0  0  0  0
 27 26  1  0  0  0  0
 28 27  2  0  0  0  0
 28 29  1  0  0  0  0
 29 24  2  0  0  0  0
M  END
>  <minimizedAffinity>
-7.49698257

$$$$
