
 OpenBabel10152418103D

 29 32  0  0  0  0  0  0  0  0999 V2000
    2.5610   -7.4750  -27.5950 C   0  0  0  0  0  0  0  0  0  0  0  0
    1.5050   -7.5330  -26.7540 N   0  0  0  0  0  0  0  0  0  0  0  0
    0.5600   -6.5930  -26.8890 C   0  0  0  0  0  0  0  0  0  0  0  0
   -0.6110   -6.6280  -26.1380 N   0  0  0  0  0  0  0  0  0  0  0  0
    0.6170   -5.6180  -27.8140 N   0  0  0  0  0  0  0  0  0  0  0  0
    1.6870   -5.6090  -28.6410 C   0  0  0  0  0  3  0  0  0  0  0  0
    2.6970   -6.5370  -28.5950 C   0  0  0  0  0  0  0  0  0  0  0  0
    3.9800   -6.5080  -29.7300 Cl  0  0  0  0  0  0  0  0  0  0  0  0
   -1.2590   -5.9350  -26.4770 H   0  0  0  0  0  0  0  0  0  0  0  0
   -1.0230   -7.4460  -25.0840 C   0  0  0  0  0  0  0  0  0  0  0  0
   -1.3630   -8.7790  -25.3560 C   0  0  0  0  0  3  0  0  0  0  0  0
   -1.6950   -9.6710  -24.3260 C   0  0  0  0  0  3  0  0  0  0  0  0
   -1.7030   -9.2430  -22.9940 C   0  0  0  0  0  0  0  0  0  0  0  0
   -1.3920   -7.9080  -22.7210 C   0  0  0  0  0  3  0  0  0  0  0  0
   -1.0360   -7.0290  -23.7510 C   0  0  0  0  0  3  0  0  0  0  0  0
   -2.0160  -10.1480  -21.8970 C   0  0  0  0  0  0  0  0  0  0  0  0
   -2.5320   -9.8490  -20.7190 N   0  0  0  0  0  0  0  0  0  0  0  0
   -2.6140  -11.0290  -20.0170 N   0  0  0  0  0  0  0  0  0  0  0  0
   -2.1380  -12.0390  -20.7310 N   0  0  0  0  0  0  0  0  0  0  0  0
   -1.7590  -11.4920  -21.8920 N   0  0  0  0  0  0  0  0  0  0  0  0
   -1.3200  -12.0680  -22.5970 H   0  0  0  0  0  0  0  0  0  0  0  0
    3.4340   -8.5340  -27.4990 O   0  0  0  0  0  0  0  0  0  0  0  0
    3.6720  -11.2940  -28.4570 F   0  0  0  0  0  0  0  0  0  0  0  0
    3.1300  -10.9880  -27.2690 C   0  0  0  0  0  0  0  0  0  0  0  0
    2.6500  -12.0390  -26.4880 C   0  0  0  0  0  3  0  0  0  0  0  0
    2.0680  -11.7780  -25.2470 C   0  0  0  0  0  3  0  0  0  0  0  0
    1.9740  -10.4650  -24.7900 C   0  0  0  0  0  3  0  0  0  0  0  0
    2.4540   -9.4160  -25.5760 C   0  0  0  0  0  3  0  0  0  0  0  0
    3.0310   -9.6670  -26.8270 C   0  0  0  0  0  0  0  0  0  0  0  0
  1 22  1  0  0  0  0
  1  2  2  0  0  0  0
  3  2  1  0  0  0  0
  3  4  1  0  0  0  0
  4 10  1  0  0  0  0
  5  3  2  0  0  0  0
  6  7  2  0  0  0  0
  6  5  1  0  0  0  0
  7  1  1  0  0  0  0
  8  7  1  0  0  0  0
  9  4  1  0  0  0  0
 10 15  1  0  0  0  0
 11 10  2  0  0  0  0
 11 12  1  0  0  0  0
 12 13  2  0  0  0  0
 13 14  1  0  0  0  0
 13 16  1  0  0  0  0
 15 14  2  0  0  0  0
 16 20  1  0  0  0  0
 16 17  2  0  0  0  0
 17 18  1  0  0  0  0
 19 18  2  0  0  0  0
 20 19  1  0  0  0  0
 21 20  1  0  0  0  0
 22 29  1  0  0  0  0
 23 24  1  0  0  0  0
 24 29  2  0  0  0  0
 24 25  1  0  0  0  0
 25 26  2  0  0  0  0
 26 27  1  0  0  0  0
 28 27  2  0  0  0  0
 29 28  1  0  0  0  0
M  END
>  <minimizedAffinity>
-7.50167418

$$$$
