
 OpenBabel10152418103D

 29 32  0  0  0  0  0  0  0  0999 V2000
    3.5260   -9.7930  -27.3140 C   0  0  0  0  0  0  0  0  0  0  0  0
    2.9750   -8.5860  -27.5720 N   0  0  0  0  0  0  0  0  0  0  0  0
    3.2850   -8.0050  -28.7380 C   0  0  0  0  0  0  0  0  0  0  0  0
    2.6910   -6.8120  -29.1360 N   0  0  0  0  0  0  0  0  0  0  0  0
    4.1010   -8.5690  -29.6480 N   0  0  0  0  0  0  0  0  0  0  0  0
    4.6160   -9.7830  -29.3520 C   0  0  0  0  0  3  0  0  0  0  0  0
    4.3460  -10.4660  -28.1930 C   0  0  0  0  0  0  0  0  0  0  0  0
    4.9730  -12.0380  -27.9240 Cl  0  0  0  0  0  0  0  0  0  0  0  0
    2.9330   -6.6080  -30.0930 H   0  0  0  0  0  0  0  0  0  0  0  0
    1.8340   -5.9280  -28.4770 C   0  0  0  0  0  0  0  0  0  0  0  0
    1.0220   -6.4180  -27.4430 C   0  0  0  0  0  3  0  0  0  0  0  0
    0.2110   -5.5610  -26.6860 C   0  0  0  0  0  3  0  0  0  0  0  0
    0.1860   -4.1880  -26.9550 C   0  0  0  0  0  0  0  0  0  0  0  0
    0.9730   -3.6990  -28.0020 C   0  0  0  0  0  3  0  0  0  0  0  0
    1.8010   -4.5570  -28.7370 C   0  0  0  0  0  3  0  0  0  0  0  0
   -0.6230   -3.2640  -26.1720 C   0  0  0  0  0  0  0  0  0  0  0  0
   -1.3040   -3.5150  -25.0690 N   0  0  0  0  0  0  0  0  0  0  0  0
   -1.9290   -2.3410  -24.7200 N   0  0  0  0  0  0  0  0  0  0  0  0
   -1.6650   -1.3840  -25.5980 N   0  0  0  0  0  0  0  0  0  0  0  0
   -0.8630   -1.9580  -26.5030 N   0  0  0  0  0  0  0  0  0  0  0  0
   -0.5550   -1.4290  -27.3060 H   0  0  0  0  0  0  0  0  0  0  0  0
    3.0750  -10.4000  -26.1650 O   0  0  0  0  0  0  0  0  0  0  0  0
    2.3160   -8.0840  -24.5380 F   0  0  0  0  0  0  0  0  0  0  0  0
    1.4290   -9.0090  -24.9320 C   0  0  0  0  0  0  0  0  0  0  0  0
    0.1050   -8.8520  -24.5210 C   0  0  0  0  0  3  0  0  0  0  0  0
   -0.8590   -9.7890  -24.8930 C   0  0  0  0  0  3  0  0  0  0  0  0
   -0.4940  -10.8790  -25.6810 C   0  0  0  0  0  3  0  0  0  0  0  0
    0.8320  -11.0340  -26.0890 C   0  0  0  0  0  3  0  0  0  0  0  0
    1.8090  -10.1030  -25.7120 C   0  0  0  0  0  0  0  0  0  0  0  0
  1 22  1  0  0  0  0
  2  1  2  0  0  0  0
  3  2  1  0  0  0  0
  4  3  1  0  0  0  0
  4 10  1  0  0  0  0
  5  6  1  0  0  0  0
  5  3  2  0  0  0  0
  6  7  2  0  0  0  0
  7  8  1  0  0  0  0
  7  1  1  0  0  0  0
  9  4  1  0  0  0  0
 10 11  1  0  0  0  0
 11 12  2  0  0  0  0
 13 12  1  0  0  0  0
 13 16  1  0  0  0  0
 14 13  2  0  0  0  0
 15 10  2  0  0  0  0
 15 14  1  0  0  0  0
 16 17  2  0  0  0  0
 17 18  1  0  0  0  0
 19 18  2  0  0  0  0
 20 16  1  0  0  0  0
 20 19  1  0  0  0  0
 21 20  1  0  0  0  0
 22 29  1  0  0  0  0
 24 23  1  0  0  0  0
 24 25  1  0  0  0  0
 26 25  2  0  0  0  0
 27 26  1  0  0  0  0
 28 29  1  0  0  0  0
 28 27  2  0  0  0  0
 29 24  2  0  0  0  0
M  END
>  <minimizedAffinity>
-7.46043396

$$$$
