
 OpenBabel10152420023D

 41 44  0  0  1  0  0  0  0  0999 V2000
   -0.8220   -6.6050  -25.7500 C   0  0  2  0  0  3  0  0  0  0  0  0
   -1.5550   -8.6670  -22.5880 C   0  0  0  0  0  0  0  0  0  0  0  0
   -2.9460   -8.7340  -22.6120 C   0  0  0  0  0  3  0  0  0  0  0  0
   -3.6630   -7.9850  -23.5390 C   0  0  0  0  0  3  0  0  0  0  0  0
   -2.9880   -7.2420  -24.5100 C   0  0  0  0  0  3  0  0  0  0  0  0
   -1.5860   -7.2470  -24.5820 C   0  0  0  0  0  0  0  0  0  0  0  0
   -0.8760   -7.9110  -23.5540 C   0  0  0  0  0  3  0  0  0  0  0  0
   -0.6570  -10.8400  -21.7040 C   0  0  0  0  0  0  0  0  0  0  0  0
   -0.6670  -11.5000  -20.6660 O   0  0  0  0  0  0  0  0  0  0  0  0
   -0.8910   -9.4870  -21.6620 N   0  0  0  0  0  0  0  0  0  0  0  0
   -0.6540   -9.0680  -20.7710 H   0  0  0  0  0  0  0  0  0  0  0  0
    0.6250  -12.3300  -25.5140 C   0  0  0  0  0  0  0  0  0  0  0  0
    1.3930  -11.3960  -24.8190 C   0  0  0  0  0  3  0  0  0  0  0  0
    1.0060  -10.9690  -23.5450 C   0  0  0  0  0  3  0  0  0  0  0  0
   -0.1640  -11.4690  -22.9610 C   0  0  0  0  0  0  0  0  0  0  0  0
   -0.9480  -12.3880  -23.6760 C   0  0  0  0  0  3  0  0  0  0  0  0
   -0.5510  -12.8190  -24.9470 C   0  0  0  0  0  3  0  0  0  0  0  0
    2.2810  -11.9900  -27.1440 C   0  0  0  0  0  1  0  0  0  0  0  0
    1.0680  -12.6440  -26.7700 O   0  0  0  0  0  0  0  0  0  0  0  0
    0.1580   -7.5270  -26.3300 N   0  0  0  0  0  0  0  0  0  0  0  0
   -0.2670   -8.3010  -26.8240 H   0  0  0  0  0  0  0  0  0  0  0  0
    1.1650   -6.9310  -27.1200 C   0  0  0  0  0  0  0  0  0  0  0  0
    0.8230   -5.9410  -27.9580 N   0  0  0  0  0  0  0  0  0  0  0  0
    1.6430   -5.7350  -28.9830 C   0  0  0  0  0  3  0  0  0  0  0  0
    2.6920   -6.5010  -29.2870 N   0  0  0  0  0  0  0  0  0  0  0  0
    3.0670   -7.4260  -28.3820 C   0  0  0  0  0  0  0  0  0  0  0  0
    4.0380   -8.3940  -28.6430 C   0  0  0  0  0  0  0  0  0  0  0  0
    4.5650   -9.2510  -27.6610 C   0  0  0  0  0  3  0  0  0  0  0  0
    4.0560   -9.2010  -26.3750 C   0  0  0  0  0  3  0  0  0  0  0  0
    2.9450   -8.4020  -26.1390 C   0  0  0  0  0  3  0  0  0  0  0  0
    2.4190   -7.5580  -27.1590 C   0  0  0  0  0  0  0  0  0  0  0  0
    4.1840   -8.8320  -30.0450 C   0  0  0  0  0  0  0  0  0  0  0  0
    4.7130   -7.8560  -30.8560 N   0  0  0  0  0  0  0  0  0  0  0  0
    3.8570   -9.9330  -30.4530 O   0  0  0  0  0  0  0  0  0  0  0  0
    4.8760   -8.0650  -31.8300 H   0  0  0  0  0  0  0  0  0  0  0  0
    4.9940   -6.9500  -30.5020 H   0  0  0  0  0  0  0  0  0  0  0  0
   -0.1470   -5.2560  -25.4020 C   0  0  0  0  0  2  0  0  0  0  0  0
   -0.9840   -3.9890  -25.1530 C   0  0  0  0  0  2  0  0  0  0  0  0
   -0.9770   -2.8960  -26.2170 C   0  0  0  0  0  2  0  0  0  0  0  0
   -0.0040   -3.1190  -27.2220 O   0  0  0  0  0  0  0  0  0  0  0  0
    0.8690   -3.2220  -26.7950 H   0  0  0  0  0  0  0  0  0  0  0  0
  1 37  1  1  0  0  0
  1  6  1  0  0  0  0
  2 10  1  0  0  0  0
  3  2  1  0  0  0  0
  4  3  2  0  0  0  0
  5  4  1  0  0  0  0
  6  5  2  0  0  0  0
  6  7  1  0  0  0  0
  7  2  2  0  0  0  0
  8 10  1  0  0  0  0
  8  9  2  0  0  0  0
 10 11  1  0  0  0  0
 12 17  2  0  0  0  0
 12 13  1  0  0  0  0
 13 14  2  0  0  0  0
 14 15  1  0  0  0  0
 15  8  1  0  0  0  0
 16 15  2  0  0  0  0
 17 16  1  0  0  0  0
 18 19  1  0  0  0  0
 19 12  1  0  0  0  0
 20  1  1  0  0  0  0
 21 20  1  0  0  0  0
 22 20  1  0  0  0  0
 23 22  2  0  0  0  0
 24 23  1  0  0  0  0
 25 24  2  0  0  0  0
 25 26  1  0  0  0  0
 26 31  1  0  0  0  0
 27 26  2  0  0  0  0
 27 28  1  0  0  0  0
 28 29  2  0  0  0  0
 29 30  1  0  0  0  0
 31 22  1  0  0  0  0
 31 30  2  0  0  0  0
 32 27  1  0  0  0  0
 33 36  1  0  0  0  0
 33 32  1  0  0  0  0
 34 32  2  0  0  0  0
 35 33  1  0  0  0  0
 37 38  1  0  0  0  0
 39 38  1  0  0  0  0
 40 41  1  0  0  0  0
 40 39  1  0  0  0  0
M  END
>  <minimizedAffinity>
-7.37570095

$$$$
