
 OpenBabel10152420023D

 41 44  0  0  1  0  0  0  0  0999 V2000
    0.6030   -8.3770  -24.0350 C   0  0  2  0  0  3  0  0  0  0  0  0
    3.1100   -8.5440  -26.9460 C   0  0  0  0  0  0  0  0  0  0  0  0
    3.3860   -9.9080  -27.0010 C   0  0  0  0  0  3  0  0  0  0  0  0
    2.9070  -10.7560  -26.0080 C   0  0  0  0  0  3  0  0  0  0  0  0
    2.0660  -10.2590  -25.0110 C   0  0  0  0  0  3  0  0  0  0  0  0
    1.6760   -8.9110  -24.9960 C   0  0  0  0  0  0  0  0  0  0  0  0
    2.2760   -8.0410  -25.9370 C   0  0  0  0  0  3  0  0  0  0  0  0
    2.8740   -7.0240  -28.9320 C   0  0  0  0  0  0  0  0  0  0  0  0
    3.2890   -6.9260  -30.0850 O   0  0  0  0  0  0  0  0  0  0  0  0
    3.5800   -7.7530  -28.0050 N   0  0  0  0  0  0  0  0  0  0  0  0
    4.5690   -7.8140  -28.2150 H   0  0  0  0  0  0  0  0  0  0  0  0
   -0.2130   -4.5300  -27.3080 C   0  0  0  0  0  0  0  0  0  0  0  0
    0.9830   -3.9770  -27.7640 C   0  0  0  0  0  3  0  0  0  0  0  0
    1.9550   -4.7870  -28.3590 C   0  0  0  0  0  3  0  0  0  0  0  0
    1.7390   -6.1640  -28.4910 C   0  0  0  0  0  0  0  0  0  0  0  0
    0.5460   -6.7200  -28.0050 C   0  0  0  0  0  3  0  0  0  0  0  0
   -0.4280   -5.9040  -27.4180 C   0  0  0  0  0  3  0  0  0  0  0  0
   -0.6010   -2.3130  -26.6400 C   0  0  0  0  0  1  0  0  0  0  0  0
   -1.0750   -3.6580  -26.7010 O   0  0  0  0  0  0  0  0  0  0  0  0
   -0.7500   -8.6360  -24.5350 N   0  0  0  0  0  0  0  0  0  0  0  0
   -0.7620   -9.1670  -25.3960 H   0  0  0  0  0  0  0  0  0  0  0  0
   -1.6510   -9.1920  -23.6010 C   0  0  0  0  0  0  0  0  0  0  0  0
   -2.4680   -8.3680  -22.9280 N   0  0  0  0  0  0  0  0  0  0  0  0
   -2.9400   -8.8290  -21.7730 C   0  0  0  0  0  3  0  0  0  0  0  0
   -2.5710   -9.9770  -21.2030 N   0  0  0  0  0  0  0  0  0  0  0  0
   -1.8260  -10.8240  -21.9400 C   0  0  0  0  0  0  0  0  0  0  0  0
   -1.2420  -11.9760  -21.4120 C   0  0  0  0  0  0  0  0  0  0  0  0
   -0.6120  -12.9570  -22.1970 C   0  0  0  0  0  3  0  0  0  0  0  0
   -0.4870  -12.7560  -23.5610 C   0  0  0  0  0  3  0  0  0  0  0  0
   -0.8650  -11.5250  -24.0810 C   0  0  0  0  0  3  0  0  0  0  0  0
   -1.4830  -10.5410  -23.2570 C   0  0  0  0  0  0  0  0  0  0  0  0
   -0.8800  -11.9460  -19.9820 C   0  0  0  0  0  0  0  0  0  0  0  0
   -0.3280  -10.7480  -19.5960 N   0  0  0  0  0  0  0  0  0  0  0  0
   -1.0360  -12.8850  -19.2200 O   0  0  0  0  0  0  0  0  0  0  0  0
   -0.0690  -10.6170  -18.6290 H   0  0  0  0  0  0  0  0  0  0  0  0
   -0.2180   -9.9700  -20.2350 H   0  0  0  0  0  0  0  0  0  0  0  0
    0.7620   -6.8810  -23.6710 C   0  0  0  0  0  2  0  0  0  0  0  0
   -0.2990   -5.8450  -24.0840 C   0  0  0  0  0  2  0  0  0  0  0  0
   -0.9260   -4.9790  -22.9960 C   0  0  0  0  0  2  0  0  0  0  0  0
   -1.8860   -5.6800  -22.2250 O   0  0  0  0  0  0  0  0  0  0  0  0
   -2.5570   -6.0580  -22.8280 H   0  0  0  0  0  0  0  0  0  0  0  0
  1 37  1  6  0  0  0
  2  7  1  0  0  0  0
  3  2  2  0  0  0  0
  3  4  1  0  0  0  0
  4  5  2  0  0  0  0
  5  6  1  0  0  0  0
  6  1  1  0  0  0  0
  7  6  2  0  0  0  0
  8 15  1  0  0  0  0
  8 10  1  0  0  0  0
  9  8  2  0  0  0  0
 10  2  1  0  0  0  0
 11 10  1  0  0  0  0
 12 19  1  0  0  0  0
 13 12  2  0  0  0  0
 14 13  1  0  0  0  0
 15 14  2  0  0  0  0
 15 16  1  0  0  0  0
 16 17  2  0  0  0  0
 17 12  1  0  0  0  0
 19 18  1  0  0  0  0
 20  1  1  0  0  0  0
 20 22  1  0  0  0  0
 21 20  1  0  0  0  0
 22 31  2  0  0  0  0
 22 23  1  0  0  0  0
 23 24  2  0  0  0  0
 24 25  1  0  0  0  0
 26 27  1  0  0  0  0
 26 25  2  0  0  0  0
 27 32  1  0  0  0  0
 28 27  2  0  0  0  0
 29 28  1  0  0  0  0
 30 29  2  0  0  0  0
 30 31  1  0  0  0  0
 31 26  1  0  0  0  0
 32 33  1  0  0  0  0
 32 34  2  0  0  0  0
 33 35  1  0  0  0  0
 36 33  1  0  0  0  0
 38 37  1  0  0  0  0
 38 39  1  0  0  0  0
 39 40  1  0  0  0  0
 41 40  1  0  0  0  0
M  END
>  <minimizedAffinity>
-7.56280565

$$$$
