
 OpenBabel10152420023D

 41 44  0  0  1  0  0  0  0  0999 V2000
   -1.2270   -9.6850  -26.1240 C   0  0  2  0  0  3  0  0  0  0  0  0
   -0.3670   -6.0190  -26.9030 C   0  0  0  0  0  0  0  0  0  0  0  0
   -0.2830   -5.4730  -25.6250 C   0  0  0  0  0  3  0  0  0  0  0  0
   -0.6630   -6.2260  -24.5190 C   0  0  0  0  0  3  0  0  0  0  0  0
   -1.0340   -7.5620  -24.6780 C   0  0  0  0  0  3  0  0  0  0  0  0
   -1.0170   -8.1750  -25.9410 C   0  0  0  0  0  0  0  0  0  0  0  0
   -0.7520   -7.3580  -27.0650 C   0  0  0  0  0  3  0  0  0  0  0  0
    1.3630   -4.9270  -28.3600 C   0  0  0  0  0  0  0  0  0  0  0  0
    1.6250   -3.8190  -28.8260 O   0  0  0  0  0  0  0  0  0  0  0  0
    0.0800   -5.2240  -27.9690 N   0  0  0  0  0  0  0  0  0  0  0  0
   -0.6220   -4.6800  -28.4570 H   0  0  0  0  0  0  0  0  0  0  0  0
    3.9980   -8.3010  -28.5990 C   0  0  0  0  0  0  0  0  0  0  0  0
    3.3960   -7.7840  -29.7460 C   0  0  0  0  0  3  0  0  0  0  0  0
    2.5960   -6.6400  -29.6710 C   0  0  0  0  0  3  0  0  0  0  0  0
    2.3840   -6.0090  -28.4390 C   0  0  0  0  0  0  0  0  0  0  0  0
    2.9690   -6.5490  -27.2840 C   0  0  0  0  0  3  0  0  0  0  0  0
    3.7770   -7.6890  -27.3650 C   0  0  0  0  0  3  0  0  0  0  0  0
    4.5330  -10.0700  -30.0460 C   0  0  0  0  0  1  0  0  0  0  0  0
    4.7220   -9.4480  -28.7750 O   0  0  0  0  0  0  0  0  0  0  0  0
   -1.9030  -10.2830  -24.9690 N   0  0  0  0  0  0  0  0  0  0  0  0
   -2.6960  -10.8560  -25.2240 H   0  0  0  0  0  0  0  0  0  0  0  0
   -1.0680  -10.9720  -24.0620 C   0  0  0  0  0  0  0  0  0  0  0  0
   -0.5220  -12.1350  -24.4470 N   0  0  0  0  0  0  0  0  0  0  0  0
   -0.1560  -12.9590  -23.4700 C   0  0  0  0  0  3  0  0  0  0  0  0
   -0.3950  -12.7590  -22.1740 N   0  0  0  0  0  0  0  0  0  0  0  0
   -0.8560  -11.5460  -21.8090 C   0  0  0  0  0  0  0  0  0  0  0  0
   -1.2980  -11.2610  -20.5160 C   0  0  0  0  0  0  0  0  0  0  0  0
   -1.6170   -9.9650  -20.0730 C   0  0  0  0  0  3  0  0  0  0  0  0
   -1.5690   -8.9120  -20.9690 C   0  0  0  0  0  3  0  0  0  0  0  0
   -1.3430   -9.1990  -22.3090 C   0  0  0  0  0  3  0  0  0  0  0  0
   -1.0420  -10.5250  -22.7330 C   0  0  0  0  0  0  0  0  0  0  0  0
   -1.8710  -12.3800  -19.7440 C   0  0  0  0  0  0  0  0  0  0  0  0
   -3.1440  -12.7080  -20.1440 N   0  0  0  0  0  0  0  0  0  0  0  0
   -1.2910  -12.9480  -18.8340 O   0  0  0  0  0  0  0  0  0  0  0  0
   -3.6160  -13.4800  -19.6940 H   0  0  0  0  0  0  0  0  0  0  0  0
   -3.6110  -12.2390  -20.9100 H   0  0  0  0  0  0  0  0  0  0  0  0
    0.0650  -10.4720  -26.4540 C   0  0  0  0  0  2  0  0  0  0  0  0
    1.4490   -9.8050  -26.3550 C   0  0  0  0  0  2  0  0  0  0  0  0
    2.2130   -9.9180  -25.0390 C   0  0  0  0  0  2  0  0  0  0  0  0
    2.1180   -8.7450  -24.2500 O   0  0  0  0  0  0  0  0  0  0  0  0
    2.4160   -7.9830  -24.7840 H   0  0  0  0  0  0  0  0  0  0  0  0
  1 37  1  1  0  0  0
  1  6  1  0  0  0  0
  1 20  1  0  0  0  0
  2  3  1  0  0  0  0
  3  4  2  0  0  0  0
  5  4  1  0  0  0  0
  6  5  2  0  0  0  0
  7  2  2  0  0  0  0
  7  6  1  0  0  0  0
  8 10  1  0  0  0  0
  9  8  2  0  0  0  0
 10  2  1  0  0  0  0
 11 10  1  0  0  0  0
 12 17  1  0  0  0  0
 13 14  1  0  0  0  0
 13 12  2  0  0  0  0
 14 15  2  0  0  0  0
 15  8  1  0  0  0  0
 15 16  1  0  0  0  0
 17 16  2  0  0  0  0
 18 19  1  0  0  0  0
 19 12  1  0  0  0  0
 20 22  1  0  0  0  0
 21 20  1  0  0  0  0
 22 31  1  0  0  0  0
 23 22  2  0  0  0  0
 23 24  1  0  0  0  0
 24 25  2  0  0  0  0
 25 26  1  0  0  0  0
 26 27  1  0  0  0  0
 27 28  2  0  0  0  0
 27 32  1  0  0  0  0
 29 28  1  0  0  0  0
 30 29  2  0  0  0  0
 31 30  1  0  0  0  0
 31 26  2  0  0  0  0
 32 34  2  0  0  0  0
 33 32  1  0  0  0  0
 33 35  1  0  0  0  0
 36 33  1  0  0  0  0
 37 38  1  0  0  0  0
 38 39  1  0  0  0  0
 39 40  1  0  0  0  0
 41 40  1  0  0  0  0
M  END
>  <minimizedAffinity>
-8.7314415

$$$$
