
 OpenBabel10152420023D

 41 44  0  0  1  0  0  0  0  0999 V2000
    1.3110   -6.2550  -27.9140 C   0  0  2  0  0  3  0  0  0  0  0  0
   -1.0970   -8.3190  -25.7400 C   0  0  0  0  0  0  0  0  0  0  0  0
   -1.4020   -7.4150  -24.7240 C   0  0  0  0  0  3  0  0  0  0  0  0
   -0.7160   -6.2090  -24.6350 C   0  0  0  0  0  3  0  0  0  0  0  0
    0.2090   -5.8570  -25.6200 C   0  0  0  0  0  3  0  0  0  0  0  0
    0.4530   -6.6960  -26.7190 C   0  0  0  0  0  0  0  0  0  0  0  0
   -0.1580   -7.9710  -26.7220 C   0  0  0  0  0  3  0  0  0  0  0  0
   -1.6570  -10.7030  -25.1850 C   0  0  0  0  0  0  0  0  0  0  0  0
   -1.9610  -11.7480  -25.7590 O   0  0  0  0  0  0  0  0  0  0  0  0
   -1.8620   -9.4930  -25.8020 N   0  0  0  0  0  0  0  0  0  0  0  0
   -2.6030   -9.5170  -26.4920 H   0  0  0  0  0  0  0  0  0  0  0  0
   -0.9100  -11.0760  -20.9790 C   0  0  0  0  0  0  0  0  0  0  0  0
   -0.4760  -12.0570  -21.8700 C   0  0  0  0  0  3  0  0  0  0  0  0
   -0.6590  -11.8950  -23.2470 C   0  0  0  0  0  3  0  0  0  0  0  0
   -1.2900  -10.7470  -23.7410 C   0  0  0  0  0  0  0  0  0  0  0  0
   -1.7510   -9.7760  -22.8400 C   0  0  0  0  0  3  0  0  0  0  0  0
   -1.5570   -9.9390  -21.4630 C   0  0  0  0  0  3  0  0  0  0  0  0
   -0.6090  -12.7470  -19.3580 C   0  0  0  0  0  1  0  0  0  0  0  0
   -0.7240  -11.3550  -19.6530 O   0  0  0  0  0  0  0  0  0  0  0  0
    2.7320   -6.1750  -27.5620 N   0  0  0  0  0  0  0  0  0  0  0  0
    2.8960   -5.7430  -26.6620 H   0  0  0  0  0  0  0  0  0  0  0  0
    3.4570   -7.3820  -27.6700 C   0  0  0  0  0  0  0  0  0  0  0  0
    4.1130   -7.6370  -28.8110 N   0  0  0  0  0  0  0  0  0  0  0  0
    4.3730   -8.9170  -29.0610 C   0  0  0  0  0  3  0  0  0  0  0  0
    3.9330   -9.9410  -28.3290 N   0  0  0  0  0  0  0  0  0  0  0  0
    3.3600   -9.6550  -27.1430 C   0  0  0  0  0  0  0  0  0  0  0  0
    2.7160  -10.6150  -26.3600 C   0  0  0  0  0  0  0  0  0  0  0  0
    2.2680  -10.3740  -25.0500 C   0  0  0  0  0  3  0  0  0  0  0  0
    2.3940   -9.1040  -24.5130 C   0  0  0  0  0  3  0  0  0  0  0  0
    2.8320   -8.0810  -25.3430 C   0  0  0  0  0  3  0  0  0  0  0  0
    3.2610   -8.3510  -26.6740 C   0  0  0  0  0  0  0  0  0  0  0  0
    2.0940  -11.7480  -27.0710 C   0  0  0  0  0  0  0  0  0  0  0  0
    3.0130  -12.5560  -27.6960 N   0  0  0  0  0  0  0  0  0  0  0  0
    0.8920  -11.9460  -27.1180 O   0  0  0  0  0  0  0  0  0  0  0  0
    2.6910  -13.3750  -28.1900 H   0  0  0  0  0  0  0  0  0  0  0  0
    4.0110  -12.3890  -27.6380 H   0  0  0  0  0  0  0  0  0  0  0  0
    0.8490   -4.9330  -28.5750 C   0  0  0  0  0  2  0  0  0  0  0  0
    1.3100   -3.5690  -28.0310 C   0  0  0  0  0  2  0  0  0  0  0  0
    0.2450   -2.5510  -27.6350 C   0  0  0  0  0  2  0  0  0  0  0  0
   -0.7030   -3.0790  -26.7230 O   0  0  0  0  0  0  0  0  0  0  0  0
   -1.0920   -3.8880  -27.1090 H   0  0  0  0  0  0  0  0  0  0  0  0
  1 37  1  1  0  0  0
  1 20  1  0  0  0  0
  1  6  1  0  0  0  0
  2  3  1  0  0  0  0
  3  4  2  0  0  0  0
  5  4  1  0  0  0  0
  6  5  2  0  0  0  0
  7  6  1  0  0  0  0
  7  2  2  0  0  0  0
  8 15  1  0  0  0  0
  9  8  2  0  0  0  0
 10  2  1  0  0  0  0
 10  8  1  0  0  0  0
 11 10  1  0  0  0  0
 12 19  1  0  0  0  0
 13 12  2  0  0  0  0
 14 13  1  0  0  0  0
 15 14  2  0  0  0  0
 15 16  1  0  0  0  0
 16 17  2  0  0  0  0
 17 12  1  0  0  0  0
 19 18  1  0  0  0  0
 20 21  1  0  0  0  0
 22 20  1  0  0  0  0
 22 31  1  0  0  0  0
 23 22  2  0  0  0  0
 24 23  1  0  0  0  0
 24 25  2  0  0  0  0
 25 26  1  0  0  0  0
 26 31  2  0  0  0  0
 26 27  1  0  0  0  0
 27 28  2  0  0  0  0
 28 29  1  0  0  0  0
 30 29  2  0  0  0  0
 31 30  1  0  0  0  0
 32 27  1  0  0  0  0
 33 36  1  0  0  0  0
 33 32  1  0  0  0  0
 34 32  2  0  0  0  0
 35 33  1  0  0  0  0
 37 38  1  0  0  0  0
 38 39  1  0  0  0  0
 39 40  1  0  0  0  0
 41 40  1  0  0  0  0
M  END
>  <minimizedAffinity>
-7.93854523

$$$$
