
 OpenBabel10152420023D

 41 44  0  0  1  0  0  0  0  0999 V2000
    1.2600   -6.5370  -27.3730 C   0  0  2  0  0  3  0  0  0  0  0  0
    3.4970   -9.5520  -28.2070 C   0  0  0  0  0  0  0  0  0  0  0  0
    4.6060   -9.3100  -27.3990 C   0  0  0  0  0  3  0  0  0  0  0  0
    4.7200   -8.1050  -26.7150 C   0  0  0  0  0  3  0  0  0  0  0  0
    3.6780   -7.1770  -26.7560 C   0  0  0  0  0  3  0  0  0  0  0  0
    2.4970   -7.4430  -27.4680 C   0  0  0  0  0  0  0  0  0  0  0  0
    2.4550   -8.6150  -28.2580 C   0  0  0  0  0  3  0  0  0  0  0  0
    3.6890  -12.0540  -28.3160 C   0  0  0  0  0  0  0  0  0  0  0  0
    4.1870  -12.9210  -29.0330 O   0  0  0  0  0  0  0  0  0  0  0  0
    3.4190  -10.8080  -28.8270 N   0  0  0  0  0  0  0  0  0  0  0  0
    3.2680  -10.8120  -29.8290 H   0  0  0  0  0  0  0  0  0  0  0  0
    2.1260  -12.7550  -24.3850 C   0  0  0  0  0  0  0  0  0  0  0  0
    1.2700  -12.5890  -25.4740 C   0  0  0  0  0  3  0  0  0  0  0  0
    1.7870  -12.4340  -26.7630 C   0  0  0  0  0  3  0  0  0  0  0  0
    3.1710  -12.4320  -26.9710 C   0  0  0  0  0  0  0  0  0  0  0  0
    4.0290  -12.5710  -25.8690 C   0  0  0  0  0  3  0  0  0  0  0  0
    3.5070  -12.7360  -24.5810 C   0  0  0  0  0  3  0  0  0  0  0  0
    0.0960  -12.9580  -23.2230 C   0  0  0  0  0  1  0  0  0  0  0  0
    1.5190  -12.8530  -23.1630 O   0  0  0  0  0  0  0  0  0  0  0  0
    0.0200   -7.3160  -27.3200 N   0  0  0  0  0  0  0  0  0  0  0  0
   -0.1580   -7.8410  -28.1660 H   0  0  0  0  0  0  0  0  0  0  0  0
   -0.1340   -8.1430  -26.1850 C   0  0  0  0  0  0  0  0  0  0  0  0
   -0.3650   -9.4510  -26.3700 N   0  0  0  0  0  0  0  0  0  0  0  0
   -0.9550  -10.0870  -25.3630 C   0  0  0  0  0  3  0  0  0  0  0  0
   -1.4220   -9.5010  -24.2600 N   0  0  0  0  0  0  0  0  0  0  0  0
   -1.0950   -8.2090  -24.0580 C   0  0  0  0  0  0  0  0  0  0  0  0
   -1.6480   -7.4370  -23.0350 C   0  0  0  0  0  0  0  0  0  0  0  0
   -1.1930   -6.1500  -22.7010 C   0  0  0  0  0  3  0  0  0  0  0  0
   -0.1950   -5.5660  -23.4620 C   0  0  0  0  0  3  0  0  0  0  0  0
    0.2220   -6.2200  -24.6130 C   0  0  0  0  0  3  0  0  0  0  0  0
   -0.2700   -7.5180  -24.9370 C   0  0  0  0  0  0  0  0  0  0  0  0
   -3.0140   -7.7870  -22.5990 C   0  0  0  0  0  0  0  0  0  0  0  0
   -3.0340   -8.4830  -21.4150 N   0  0  0  0  0  0  0  0  0  0  0  0
   -4.0210   -7.5060  -23.2250 O   0  0  0  0  0  0  0  0  0  0  0  0
   -3.9230   -8.7490  -21.0170 H   0  0  0  0  0  0  0  0  0  0  0  0
   -2.1900   -8.6980  -20.8960 H   0  0  0  0  0  0  0  0  0  0  0  0
    1.1710   -5.4650  -28.4870 C   0  0  0  0  0  2  0  0  0  0  0  0
    1.3480   -3.9700  -28.1660 C   0  0  0  0  0  2  0  0  0  0  0  0
    0.1650   -3.2120  -27.5720 C   0  0  0  0  0  2  0  0  0  0  0  0
   -0.7080   -4.0510  -26.8370 O   0  0  0  0  0  0  0  0  0  0  0  0
   -0.9940   -4.7870  -27.4130 H   0  0  0  0  0  0  0  0  0  0  0  0
  1 37  1  6  0  0  0
  1 20  1  0  0  0  0
  2  3  1  0  0  0  0
  3  4  2  0  0  0  0
  5  4  1  0  0  0  0
  6  1  1  0  0  0  0
  6  5  2  0  0  0  0
  7  2  2  0  0  0  0
  7  6  1  0  0  0  0
  8 15  1  0  0  0  0
  9  8  2  0  0  0  0
 10  8  1  0  0  0  0
 10  2  1  0  0  0  0
 11 10  1  0  0  0  0
 12 19  1  0  0  0  0
 13 12  2  0  0  0  0
 14 13  1  0  0  0  0
 15 14  2  0  0  0  0
 15 16  1  0  0  0  0
 16 17  2  0  0  0  0
 17 12  1  0  0  0  0
 18 19  1  0  0  0  0
 20 22  1  0  0  0  0
 21 20  1  0  0  0  0
 22 31  1  0  0  0  0
 23 22  2  0  0  0  0
 23 24  1  0  0  0  0
 24 25  2  0  0  0  0
 25 26  1  0  0  0  0
 26 27  1  0  0  0  0
 27 28  2  0  0  0  0
 27 32  1  0  0  0  0
 29 28  1  0  0  0  0
 30 29  2  0  0  0  0
 31 30  1  0  0  0  0
 31 26  2  0  0  0  0
 32 33  1  0  0  0  0
 33 35  1  0  0  0  0
 33 36  1  0  0  0  0
 34 32  2  0  0  0  0
 37 38  1  0  0  0  0
 38 39  1  0  0  0  0
 39 40  1  0  0  0  0
 41 40  1  0  0  0  0
M  END
>  <minimizedAffinity>
-7.4155612

$$$$
