REMARK  Name = 
REMARK  12 active torsions:
REMARK  status: ('A' for Active; 'I' for Inactive)
REMARK    1  A    between atoms: C_1  and  O_2
REMARK    2  A    between atoms: O_2  and  C_3
REMARK    3  A    between atoms: C_6  and  C_7
REMARK    4  A    between atoms: N_9  and  C_10
REMARK    5  A    between atoms: C_14  and  C_15
REMARK    6  A    between atoms: C_15  and  C_16
REMARK    7  A    between atoms: C_15  and  N_20
REMARK    8  A    between atoms: C_16  and  C_17
REMARK    9  A    between atoms: C_17  and  C_18
REMARK   10  A    between atoms: C_18  and  O_19
REMARK   11  A    between atoms: N_20  and  C_21
REMARK   12  A    between atoms: C_26  and  C_27
REMARK                            x       y       z     vdW  Elec       q    Type
REMARK                         _______ _______ _______ _____ _____    ______ ____
ROOT
ATOM      1  C   UNL     1       6.348   2.944   1.939  0.00  0.00    +0.102 C 
ENDROOT
BRANCH   1   6
ATOM      2  C   UNL     1       4.469   1.376   4.905  0.00  0.00    +0.034 A 
ATOM      3  C   UNL     1       5.283   0.287   5.209  0.00  0.00    +0.023 A 
ATOM      4  C   UNL     1       6.339  -0.049   4.369  0.00  0.00    +0.002 A 
ATOM      5  C   UNL     1       6.647   0.762   3.275  0.00  0.00    +0.005 A 
ATOM      6  C   UNL     1       5.916   1.931   3.010  0.00  0.00    -0.026 A 
ATOM      7  C   UNL     1       4.770   2.184   3.799  0.00  0.00    +0.028 A 
BRANCH   2  10
ATOM      8  C   UNL     1       2.254   2.326   5.612  0.00  0.00    +0.248 C 
ATOM      9  O   UNL     1       1.791   3.070   6.475  0.00  0.00    -0.270 OA
ATOM     10  N   UNL     1       3.454   1.691   5.821  0.00  0.00    -0.281 N 
ATOM     11  H   UNL     1       3.668   1.555   6.802  0.00  0.00    +0.155 HD
BRANCH   8  15
ATOM     12  C   UNL     1      -0.488   1.138   2.537  0.00  0.00    +0.120 A 
ATOM     13  C   UNL     1      -0.538   2.422   3.079  0.00  0.00    +0.046 A 
ATOM     14  C   UNL     1       0.405   2.826   4.029  0.00  0.00    +0.016 A 
ATOM     15  C   UNL     1       1.402   1.939   4.452  0.00  0.00    +0.037 A 
ATOM     16  C   UNL     1       1.431   0.639   3.925  0.00  0.00    +0.016 A 
ATOM     17  C   UNL     1       0.490   0.242   2.967  0.00  0.00    +0.046 A 
BRANCH  12  19
ATOM     18  C   UNL     1      -1.070  -0.009   0.573  0.00  0.00    +0.277 C 
ATOM     19  O   UNL     1      -1.484   0.830   1.651  0.00  0.00    -0.495 OA
ENDBRANCH  12  19
ENDBRANCH   8  15
ENDBRANCH   2  10
ENDBRANCH   1   6
BRANCH   1  20
ATOM     20  N   UNL     1       6.323   2.358   0.596  0.00  0.00    -0.322 N 
ATOM     21  H   UNL     1       6.894   1.527   0.513  0.00  0.00    +0.148 HD
BRANCH  20  22
ATOM     22  C   UNL     1       5.040   2.131   0.052  0.00  0.00    +0.130 A 
ATOM     23  N   UNL     1       4.019   2.890   0.476  0.00  0.00    -0.220 NA
ATOM     24  C   UNL     1       2.804   2.372   0.323  0.00  0.00    +0.223 A 
ATOM     25  N   UNL     1       2.551   1.135  -0.106  0.00  0.00    -0.235 NA
ATOM     26  C   UNL     1       3.583   0.431  -0.612  0.00  0.00    +0.088 A 
ATOM     27  C   UNL     1       3.489  -0.922  -0.942  0.00  0.00    +0.063 A 
ATOM     28  C   UNL     1       4.494  -1.625  -1.629  0.00  0.00    +0.015 A 
ATOM     29  C   UNL     1       5.680  -0.982  -1.939  0.00  0.00    +0.002 A 
ATOM     30  C   UNL     1       5.886   0.295  -1.434  0.00  0.00    +0.013 A 
ATOM     31  C   UNL     1       4.856   0.977  -0.724  0.00  0.00    +0.041 A 
BRANCH  27  32
ATOM     32  C   UNL     1       2.530  -1.733  -0.168  0.00  0.00    +0.244 C 
ATOM     33  N   UNL     1       3.101  -2.332   0.929  0.00  0.00    -0.325 N 
ATOM     34  O   UNL     1       1.358  -1.876  -0.471  0.00  0.00    -0.270 OA
ATOM     35  H   UNL     1       2.522  -2.890   1.540  0.00  0.00    +0.145 HD
ATOM     36  H   UNL     1       4.073  -2.194   1.179  0.00  0.00    +0.145 HD
ENDBRANCH  27  32
ENDBRANCH  20  22
ENDBRANCH   1  20
BRANCH   1  37
ATOM     37  C   UNL     1       7.721   3.607   2.208  0.00  0.00    +0.029 C 
BRANCH  37  38
ATOM     38  C   UNL     1       9.019   2.780   2.195  0.00  0.00    +0.030 C 
BRANCH  38  39
ATOM     39  C   UNL     1       9.345   1.965   0.947  0.00  0.00    +0.156 C 
BRANCH  39  40
ATOM     40  O   UNL     1       9.077   2.671  -0.252  0.00  0.00    -0.395 OA
ATOM     41  H   UNL     1       8.146   2.968  -0.239  0.00  0.00    +0.209 HD
ENDBRANCH  39  40
ENDBRANCH  38  39
ENDBRANCH  37  38
ENDBRANCH   1  37
TORSDOF 11
