REMARK  Name = 
REMARK  5 active torsions:
REMARK  status: ('A' for Active; 'I' for Inactive)
REMARK    1  A    between atoms: C_2  and  C_4
REMARK    2  A    between atoms: N_10  and  C_11
REMARK    3  A    between atoms: C_11  and  C_12
REMARK    4  A    between atoms: C_16  and  N_17
REMARK    5  A    between atoms: C_18  and  C_20
REMARK                            x       y       z     vdW  Elec       q    Type
REMARK                         _______ _______ _______ _____ _____    ______ ____
ROOT
ATOM      1  C   UNL     1       0.809  -3.280  -7.706  0.00  0.00    +0.138 C 
ENDROOT
BRANCH   1   8
ATOM      2  C   UNL     1       0.761  -1.629  -1.811  0.00  0.00    +0.063 A 
ATOM      3  C   UNL     1       1.787  -2.457  -1.329  0.00  0.00    +0.015 A 
ATOM      4  C   UNL     1       2.433  -3.318  -2.199  0.00  0.00    +0.002 A 
ATOM      5  C   UNL     1       2.055  -3.332  -3.539  0.00  0.00    +0.013 A 
ATOM      6  C   UNL     1       1.027  -2.482  -4.033  0.00  0.00    +0.041 A 
ATOM      7  C   UNL     1       0.623  -2.431  -5.385  0.00  0.00    +0.130 A 
ATOM      8  N   UNL     1       1.269  -3.217  -6.331  0.00  0.00    -0.324 N 
ATOM      9  N   UNL     1      -0.389  -1.651  -5.795  0.00  0.00    -0.220 NA
ATOM     10  C   UNL     1      -0.965  -0.878  -4.873  0.00  0.00    +0.223 A 
ATOM     11  N   UNL     1      -0.625  -0.806  -3.584  0.00  0.00    -0.235 NA
ATOM     12  C   UNL     1       0.353  -1.620  -3.151  0.00  0.00    +0.088 A 
ATOM     13  H   UNL     1       2.269  -3.305  -6.209  0.00  0.00    +0.148 HD
BRANCH   2  15
ATOM     14  N   UNL     1       0.873   0.232  -0.295  0.00  0.00    -0.325 N 
ATOM     15  C   UNL     1       0.091  -0.754  -0.831  0.00  0.00    +0.244 C 
ATOM     16  O   UNL     1      -1.063  -0.937  -0.473  0.00  0.00    -0.270 OA
ATOM     17  H   UNL     1       0.445   0.848   0.384  0.00  0.00    +0.145 HD
ATOM     18  H   UNL     1       1.821   0.412  -0.592  0.00  0.00    +0.145 HD
ENDBRANCH   2  15
ENDBRANCH   1   8
BRANCH   1  19
ATOM     19  C   UNL     1       2.014  -3.128  -8.608  0.00  0.00    -0.029 A 
ATOM     20  C   UNL     1       2.830  -4.224  -8.904  0.00  0.00    +0.005 A 
ATOM     21  C   UNL     1       4.000  -4.041  -9.636  0.00  0.00    +0.002 A 
ATOM     22  C   UNL     1       4.366  -2.765 -10.082  0.00  0.00    +0.023 A 
ATOM     23  C   UNL     1       3.553  -1.662  -9.827  0.00  0.00    +0.034 A 
ATOM     24  C   UNL     1       2.387  -1.855  -9.072  0.00  0.00    +0.028 A 
BRANCH  23  25
ATOM     25  N   UNL     1       3.828  -0.337 -10.213  0.00  0.00    -0.281 N 
ATOM     26  C   UNL     1       4.787   0.246 -11.003  0.00  0.00    +0.251 C 
ATOM     27  O   UNL     1       4.915   1.471 -11.006  0.00  0.00    -0.270 OA
ATOM     28  H   UNL     1       3.220   0.373  -9.819  0.00  0.00    +0.155 HD
BRANCH  26  29
ATOM     29  C   UNL     1       5.682  -0.525 -11.867  0.00  0.00    +0.072 A 
ATOM     30  C   UNL     1       7.063  -0.452 -11.646  0.00  0.00    +0.019 A 
ATOM     31  C   UNL     1       7.929  -1.155 -12.484  0.00  0.00    +0.039 A 
ATOM     32  C   UNL     1       7.409  -1.901 -13.540  0.00  0.00    +0.126 A 
ATOM     33  F   UNL     1       8.245  -2.576 -14.339  0.00  0.00    -0.205 F 
ATOM     34  C   UNL     1       6.041  -1.952 -13.784  0.00  0.00    +0.077 A 
ATOM     35  C   UNL     1       5.179  -1.250 -12.948  0.00  0.00    +0.138 A 
ATOM     36  F   UNL     1       3.863  -1.291 -13.196  0.00  0.00    -0.205 F 
ENDBRANCH  26  29
ENDBRANCH  23  25
ENDBRANCH   1  19
TORSDOF 5
