
 OpenBabel10152419363D

 32 35  0  0  1  0  0  0  0  0999 V2000
   -1.5400   -8.3020  -23.4130 C   0  0  2  0  0  0  0  0  0  0  0  0
   -1.2690   -9.2400  -24.6050 C   0  0  0  0  0  2  0  0  0  0  0  0
   -1.6240  -10.7140  -24.3930 C   0  0  0  0  0  2  0  0  0  0  0  0
   -1.1800  -11.3020  -23.0510 C   0  0  2  0  0  3  0  0  0  0  0  0
   -1.4800  -10.3820  -21.8660 C   0  0  0  0  0  2  0  0  0  0  0  0
   -1.0750   -8.9240  -22.0750 C   0  0  0  0  0  2  0  0  0  0  0  0
   -3.6230   -7.3680  -24.1430 O   0  0  0  0  0  0  0  0  0  0  0  0
   -3.0420   -7.9670  -23.1950 C   0  0  0  0  0  0  0  0  0  0  0  0
   -3.5360   -8.3280  -22.0880 O   0  0  0  0  0  1  0  0  0  0  0  0
   -0.7600   -6.9630  -23.6020 C   0  0  0  0  0  2  0  0  0  0  0  0
   -0.1990   -6.6700  -24.9780 C   0  0  0  0  0  0  0  0  0  0  0  0
   -0.8930   -5.8600  -25.8670 C   0  0  0  0  0  3  0  0  0  0  0  0
   -0.3360   -5.6000  -27.1090 C   0  0  0  0  0  3  0  0  0  0  0  0
    0.9100   -6.1340  -27.4130 C   0  0  0  0  0  3  0  0  0  0  0  0
    1.5840   -6.9120  -26.4670 C   0  0  0  0  0  0  0  0  0  0  0  0
    1.0310   -7.1890  -25.2700 N   0  0  0  0  0  0  0  0  0  0  0  0
    2.8870   -7.3330  -26.8040 N   0  0  0  0  0  0  0  0  0  0  0  0
    3.3580   -7.6420  -28.0290 C   0  0  0  0  0  0  0  0  0  0  0  0
    3.0030   -7.1420  -29.1940 N   0  0  0  0  0  0  0  0  0  0  0  0
    3.7630   -7.6810  -30.2090 C   0  0  0  0  0  3  0  0  0  0  0  0
    4.7140   -8.5960  -29.8230 C   0  0  0  0  0  3  0  0  0  0  0  0
    4.6790   -8.7670  -28.1240 S   0  0  0  0  0  0  0  0  0  0  0  0
    3.3620   -7.7430  -26.0150 H   0  0  0  0  0  0  0  0  0  0  0  0
    0.1320  -11.9180  -23.0220 O   0  0  0  0  0  0  0  0  0  0  0  0
    0.7370  -12.1490  -24.2220 C   0  0  0  0  0  0  0  0  0  0  0  0
    0.0110  -12.7480  -25.2490 C   0  0  0  0  0  3  0  0  0  0  0  0
    0.6050  -12.9590  -26.4920 C   0  0  0  0  0  3  0  0  0  0  0  0
    1.9440  -12.6250  -26.6950 C   0  0  0  0  0  3  0  0  0  0  0  0
    2.6950  -12.1140  -25.6360 C   0  0  0  0  0  0  0  0  0  0  0  0
    4.3610  -11.7480  -25.8870 Cl  0  0  0  0  0  0  0  0  0  0  0  0
    2.0970  -11.8990  -24.3950 C   0  0  0  0  0  0  0  0  0  0  0  0
    2.8250  -11.4250  -23.3700 F   0  0  0  0  0  0  0  0  0  0  0  0
  1 10  1  6  0  0  0
  1  8  1  0  0  0  0
  1  6  1  0  0  0  0
  2  3  1  0  0  0  0
  2  1  1  0  0  0  0
  3  4  1  0  0  0  0
  4 24  1  6  0  0  0
  4  5  1  0  0  0  0
  6  5  1  0  0  0  0
  7  8  2  0  0  0  0
  8  9  1  0  0  0  0
 11 10  1  0  0  0  0
 12 11  2  0  0  0  0
 13 12  1  0  0  0  0
 14 13  2  0  0  0  0
 14 15  1  0  0  0  0
 15 16  2  0  0  0  0
 16 11  1  0  0  0  0
 17 15  1  0  0  0  0
 17 23  1  0  0  0  0
 18 17  1  0  0  0  0
 19 18  2  0  0  0  0
 20 21  2  0  0  0  0
 20 19  1  0  0  0  0
 21 22  1  0  0  0  0
 22 18  1  0  0  0  0
 25 24  1  0  0  0  0
 26 25  2  0  0  0  0
 27 26  1  0  0  0  0
 28 27  2  0  0  0  0
 28 29  1  0  0  0  0
 29 31  2  0  0  0  0
 30 29  1  0  0  0  0
 31 25  1  0  0  0  0
 31 32  1  0  0  0  0
M  END
>  <minimizedAffinity>
-8.15395737

$$$$
