
 OpenBabel10152419363D

 32 35  0  0  1  0  0  0  0  0999 V2000
   -2.1180   -8.3910  -22.7060 C   0  0  2  0  0  0  0  0  0  0  0  0
   -1.1010   -7.3150  -22.2790 C   0  0  0  0  0  2  0  0  0  0  0  0
   -0.8990   -6.1570  -23.2610 C   0  0  0  0  0  2  0  0  0  0  0  0
   -0.7610   -6.5670  -24.7290 C   0  0  2  0  0  3  0  0  0  0  0  0
   -1.7920   -7.6120  -25.1580 C   0  0  0  0  0  2  0  0  0  0  0  0
   -1.9470   -8.7850  -24.1920 C   0  0  0  0  0  2  0  0  0  0  0  0
   -4.1070   -7.3920  -23.5950 O   0  0  0  0  0  0  0  0  0  0  0  0
   -3.6040   -7.9500  -22.5800 C   0  0  0  0  0  0  0  0  0  0  0  0
   -4.1620   -8.1950  -21.4710 O   0  0  0  0  0  1  0  0  0  0  0  0
   -1.9150   -9.6820  -21.8540 C   0  0  0  0  0  2  0  0  0  0  0  0
   -0.9090  -10.6980  -22.3540 C   0  0  0  0  0  0  0  0  0  0  0  0
   -1.0860  -12.0520  -22.1020 C   0  0  0  0  0  3  0  0  0  0  0  0
   -0.1530  -12.9510  -22.5930 C   0  0  0  0  0  3  0  0  0  0  0  0
    0.9130  -12.4720  -23.3450 C   0  0  0  0  0  3  0  0  0  0  0  0
    1.0240  -11.1030  -23.6020 C   0  0  0  0  0  0  0  0  0  0  0  0
    0.1330  -10.2250  -23.1010 N   0  0  0  0  0  0  0  0  0  0  0  0
    2.0700  -10.7000  -24.4570 N   0  0  0  0  0  0  0  0  0  0  0  0
    2.4120  -11.2400  -25.6450 C   0  0  0  0  0  0  0  0  0  0  0  0
    1.6350  -11.8160  -26.5370 N   0  0  0  0  0  0  0  0  0  0  0  0
    2.3620  -12.1890  -27.6480 C   0  0  0  0  0  3  0  0  0  0  0  0
    3.7040  -11.8910  -27.6140 C   0  0  0  0  0  3  0  0  0  0  0  0
    4.0680  -11.0860  -26.1520 S   0  0  0  0  0  0  0  0  0  0  0  0
    2.7900  -10.2020  -23.9580 H   0  0  0  0  0  0  0  0  0  0  0  0
    0.5870   -6.8170  -25.2020 O   0  0  0  0  0  0  0  0  0  0  0  0
    0.9270   -6.2940  -26.4140 C   0  0  0  0  0  0  0  0  0  0  0  0
    0.3130   -5.1210  -26.8490 C   0  0  0  0  0  3  0  0  0  0  0  0
    0.6750   -4.5550  -28.0710 C   0  0  0  0  0  3  0  0  0  0  0  0
    1.6100   -5.1910  -28.8870 C   0  0  0  0  0  3  0  0  0  0  0  0
    2.1520   -6.4150  -28.4930 C   0  0  0  0  0  0  0  0  0  0  0  0
    3.2710   -7.2130  -29.5330 Cl  0  0  0  0  0  0  0  0  0  0  0  0
    1.7920   -6.9760  -27.2680 C   0  0  0  0  0  0  0  0  0  0  0  0
    2.2980   -8.1630  -26.8970 F   0  0  0  0  0  0  0  0  0  0  0  0
  1  8  1  0  0  0  0
  1  2  1  0  0  0  0
  1 10  1  1  0  0  0
  3  2  1  0  0  0  0
  4 24  1  1  0  0  0
  4  3  1  0  0  0  0
  5  4  1  0  0  0  0
  5  6  1  0  0  0  0
  6  1  1  0  0  0  0
  7  8  2  0  0  0  0
  8  9  1  0  0  0  0
 11 12  1  0  0  0  0
 11 10  1  0  0  0  0
 13 12  2  0  0  0  0
 14 13  1  0  0  0  0
 15 14  2  0  0  0  0
 15 16  1  0  0  0  0
 16 11  2  0  0  0  0
 17 23  1  0  0  0  0
 17 15  1  0  0  0  0
 18 17  1  0  0  0  0
 19 18  2  0  0  0  0
 20 21  2  0  0  0  0
 20 19  1  0  0  0  0
 21 22  1  0  0  0  0
 22 18  1  0  0  0  0
 25 24  1  0  0  0  0
 26 25  1  0  0  0  0
 27 26  2  0  0  0  0
 28 29  2  0  0  0  0
 28 27  1  0  0  0  0
 29 31  1  0  0  0  0
 30 29  1  0  0  0  0
 31 32  1  0  0  0  0
 31 25  2  0  0  0  0
M  END
>  <minimizedAffinity>
-9.41000366

$$$$
