
 OpenBabel10152419363D

 32 35  0  0  1  0  0  0  0  0999 V2000
   -0.4230  -10.7740  -24.4420 C   0  0  2  0  0  0  0  0  0  0  0  0
   -0.0940  -10.3620  -25.8900 C   0  0  0  0  0  2  0  0  0  0  0  0
    1.3010  -10.7410  -26.3940 C   0  0  0  0  0  2  0  0  0  0  0  0
    2.4440  -10.4610  -25.4150 C   0  0  2  0  0  3  0  0  0  0  0  0
    2.1260  -10.9000  -23.9840 C   0  0  0  0  0  2  0  0  0  0  0  0
    0.7500  -10.4720  -23.4790 C   0  0  0  0  0  2  0  0  0  0  0  0
   -0.8650  -12.9590  -25.3190 O   0  0  0  0  0  0  0  0  0  0  0  0
   -0.7080  -12.2910  -24.2600 C   0  0  0  0  0  0  0  0  0  0  0  0
   -0.7530  -12.7070  -23.0660 O   0  0  0  0  0  1  0  0  0  0  0  0
   -1.6630   -9.9760  -23.9310 C   0  0  0  0  0  2  0  0  0  0  0  0
   -1.4700   -8.5050  -23.6250 C   0  0  0  0  0  0  0  0  0  0  0  0
   -1.7740   -7.9990  -22.3680 C   0  0  0  0  0  3  0  0  0  0  0  0
   -1.5650   -6.6510  -22.1220 C   0  0  0  0  0  3  0  0  0  0  0  0
   -1.0330   -5.8570  -23.1300 C   0  0  0  0  0  3  0  0  0  0  0  0
   -0.7080   -6.4240  -24.3660 C   0  0  0  0  0  0  0  0  0  0  0  0
   -0.9380   -7.7290  -24.6150 N   0  0  0  0  0  0  0  0  0  0  0  0
   -0.0760   -5.5840  -25.3040 N   0  0  0  0  0  0  0  0  0  0  0  0
   -0.4420   -4.3360  -25.6640 C   0  0  0  0  0  0  0  0  0  0  0  0
   -1.0340   -3.4130  -24.9360 N   0  0  0  0  0  0  0  0  0  0  0  0
   -1.1860   -2.2470  -25.6570 C   0  0  0  0  0  3  0  0  0  0  0  0
   -0.7020   -2.2710  -26.9430 C   0  0  0  0  0  3  0  0  0  0  0  0
   -0.0010   -3.7970  -27.2570 S   0  0  0  0  0  0  0  0  0  0  0  0
    0.4700   -6.1090  -25.9690 H   0  0  0  0  0  0  0  0  0  0  0  0
    3.0790   -9.1620  -25.5230 O   0  0  0  0  0  0  0  0  0  0  0  0
    3.3720   -8.7160  -26.7770 C   0  0  0  0  0  0  0  0  0  0  0  0
    4.4230   -9.3000  -27.4810 C   0  0  0  0  0  3  0  0  0  0  0  0
    4.7130   -8.8780  -28.7780 C   0  0  0  0  0  3  0  0  0  0  0  0
    3.9910   -7.8310  -29.3520 C   0  0  0  0  0  3  0  0  0  0  0  0
    3.0030   -7.1840  -28.6090 C   0  0  0  0  0  0  0  0  0  0  0  0
    2.1500   -5.8630  -29.3130 Cl  0  0  0  0  0  0  0  0  0  0  0  0
    2.7120   -7.6120  -27.3140 C   0  0  0  0  0  0  0  0  0  0  0  0
    1.7740   -6.9770  -26.5910 F   0  0  0  0  0  0  0  0  0  0  0  0
  1  8  1  0  0  0  0
  1 10  1  1  0  0  0
  1  6  1  0  0  0  0
  2  1  1  0  0  0  0
  3  2  1  0  0  0  0
  3  4  1  0  0  0  0
  4 24  1  1  0  0  0
  4  5  1  0  0  0  0
  5  6  1  0  0  0  0
  7  8  2  0  0  0  0
  8  9  1  0  0  0  0
 10 11  1  0  0  0  0
 11 12  1  0  0  0  0
 12 13  2  0  0  0  0
 14 13  1  0  0  0  0
 15 14  2  0  0  0  0
 16 15  1  0  0  0  0
 16 11  2  0  0  0  0
 17 15  1  0  0  0  0
 18 17  1  0  0  0  0
 18 19  2  0  0  0  0
 20 19  1  0  0  0  0
 21 20  2  0  0  0  0
 22 21  1  0  0  0  0
 22 18  1  0  0  0  0
 23 17  1  0  0  0  0
 25 24  1  0  0  0  0
 26 25  2  0  0  0  0
 27 26  1  0  0  0  0
 28 27  2  0  0  0  0
 28 29  1  0  0  0  0
 29 31  2  0  0  0  0
 30 29  1  0  0  0  0
 31 25  1  0  0  0  0
 31 32  1  0  0  0  0
M  END
>  <minimizedAffinity>
-7.71403503

$$$$
