
 OpenBabel10152419363D

 32 35  0  0  1  0  0  0  0  0999 V2000
   -2.1180   -8.3910  -22.7060 C   0  0  2  0  0  0  0  0  0  0  0  0
   -1.1010   -7.3150  -22.2790 C   0  0  0  0  0  2  0  0  0  0  0  0
   -0.8990   -6.1570  -23.2610 C   0  0  0  0  0  2  0  0  0  0  0  0
   -0.7610   -6.5670  -24.7290 C   0  0  2  0  0  3  0  0  0  0  0  0
   -1.7920   -7.6120  -25.1580 C   0  0  0  0  0  2  0  0  0  0  0  0
   -1.9470   -8.7850  -24.1920 C   0  0  0  0  0  2  0  0  0  0  0  0
   -4.1070   -7.3920  -23.5950 O   0  0  0  0  0  0  0  0  0  0  0  0
   -3.6040   -7.9500  -22.5800 C   0  0  0  0  0  0  0  0  0  0  0  0
   -4.1620   -8.1950  -21.4710 O   0  0  0  0  0  1  0  0  0  0  0  0
   -1.9150   -9.6820  -21.8540 C   0  0  0  0  0  2  0  0  0  0  0  0
   -0.9090  -10.6980  -22.3540 C   0  0  0  0  0  0  0  0  0  0  0  0
   -1.0860  -12.0520  -22.1020 C   0  0  0  0  0  3  0  0  0  0  0  0
   -0.1530  -12.9510  -22.5930 C   0  0  0  0  0  3  0  0  0  0  0  0
    0.9130  -12.4720  -23.3450 C   0  0  0  0  0  3  0  0  0  0  0  0
    1.0240  -11.1030  -23.6020 C   0  0  0  0  0  0  0  0  0  0  0  0
    0.1330  -10.2250  -23.1010 N   0  0  0  0  0  0  0  0  0  0  0  0
    2.0700  -10.7000  -24.4570 N   0  0  0  0  0  0  0  0  0  0  0  0
    2.4120  -11.2400  -25.6450 C   0  0  0  0  0  0  0  0  0  0  0  0
    1.6350  -11.8160  -26.5370 N   0  0  0  0  0  0  0  0  0  0  0  0
    2.3620  -12.1890  -27.6480 C   0  0  0  0  0  3  0  0  0  0  0  0
    3.7040  -11.8910  -27.6140 C   0  0  0  0  0  3  0  0  0  0  0  0
    4.0680  -11.0860  -26.1520 S   0  0  0  0  0  0  0  0  0  0  0  0
    2.7900  -10.2020  -23.9580 H   0  0  0  0  0  0  0  0  0  0  0  0
    0.5870   -6.8170  -25.2020 O   0  0  0  0  0  0  0  0  0  0  0  0
    0.9270   -6.2940  -26.4140 C   0  0  0  0  0  0  0  0  0  0  0  0
    0.3130   -5.1210  -26.8490 C   0  0  0  0  0  3  0  0  0  0  0  0
    0.6750   -4.5550  -28.0710 C   0  0  0  0  0  3  0  0  0  0  0  0
    1.6100   -5.1910  -28.8870 C   0  0  0  0  0  3  0  0  0  0  0  0
    2.1520   -6.4150  -28.4930 C   0  0  0  0  0  0  0  0  0  0  0  0
    3.2710   -7.2130  -29.5330 Cl  0  0  0  0  0  0  0  0  0  0  0  0
    1.7920   -6.9760  -27.2680 C   0  0  0  0  0  0  0  0  0  0  0  0
    2.2980   -8.1630  -26.8970 F   0  0  0  0  0  0  0  0  0  0  0  0
  1  8  1  0  0  0  0
  1  2  1  0  0  0  0
  1 10  1  1  0  0  0
  3  2  1  0  0  0  0
  4 24  1  1  0  0  0
  4  3  1  0  0  0  0
  5  4  1  0  0  0  0
  5  6  1  0  0  0  0
  6  1  1  0  0  0  0
  7  8  2  0  0  0  0
  8  9  1  0  0  0  0
 11 12  1  0  0  0  0
 11 10  1  0  0  0  0
 13 12  2  0  0  0  0
 14 13  1  0  0  0  0
 15 14  2  0  0  0  0
 15 16  1  0  0  0  0
 16 11  2  0  0  0  0
 17 23  1  0  0  0  0
 17 15  1  0  0  0  0
 18 17  1  0  0  0  0
 19 18  2  0  0  0  0
 20 21  2  0  0  0  0
 20 19  1  0  0  0  0
 21 22  1  0  0  0  0
 22 18  1  0  0  0  0
 25 24  1  0  0  0  0
 26 25  1  0  0  0  0
 27 26  2  0  0  0  0
 28 29  2  0  0  0  0
 28 27  1  0  0  0  0
 29 31  1  0  0  0  0
 30 29  1  0  0  0  0
 31 32  1  0  0  0  0
 31 25  2  0  0  0  0
M  END
>  <minimizedAffinity>
-9.41000366

$$$$

 OpenBabel10152419363D

 32 35  0  0  1  0  0  0  0  0999 V2000
   -1.0250   -7.7700  -24.7810 C   0  0  2  0  0  0  0  0  0  0  0  0
   -2.0710   -8.8220  -24.3630 C   0  0  0  0  0  2  0  0  0  0  0  0
   -1.6330   -9.8100  -23.2790 C   0  0  0  0  0  2  0  0  0  0  0  0
   -0.2310  -10.3970  -23.4640 C   0  0  2  0  0  3  0  0  0  0  0  0
    0.8120   -9.3450  -23.8470 C   0  0  0  0  0  2  0  0  0  0  0  0
    0.3780   -8.3980  -24.9640 C   0  0  0  0  0  2  0  0  0  0  0  0
   -1.7770   -6.4190  -22.9510 O   0  0  0  0  0  1  0  0  0  0  0  0
   -0.8190   -6.6300  -23.7460 C   0  0  0  0  0  0  0  0  0  0  0  0
    0.2910   -6.0250  -23.8010 O   0  0  0  0  0  0  0  0  0  0  0  0
   -1.4310   -7.1290  -26.1450 C   0  0  0  0  0  2  0  0  0  0  0  0
   -0.3810   -6.3170  -26.8750 C   0  0  0  0  0  0  0  0  0  0  0  0
   -0.6000   -4.9780  -27.1680 C   0  0  0  0  0  3  0  0  0  0  0  0
    0.3930   -4.2650  -27.8210 C   0  0  0  0  0  3  0  0  0  0  0  0
    1.5860   -4.9060  -28.1360 C   0  0  0  0  0  3  0  0  0  0  0  0
    1.7700   -6.2460  -27.7840 C   0  0  0  0  0  0  0  0  0  0  0  0
    0.7940   -6.9480  -27.1740 N   0  0  0  0  0  0  0  0  0  0  0  0
    3.0410   -6.8010  -28.0390 N   0  0  0  0  0  0  0  0  0  0  0  0
    3.4230   -7.5100  -29.1210 C   0  0  0  0  0  0  0  0  0  0  0  0
    2.9970   -7.4050  -30.3620 N   0  0  0  0  0  0  0  0  0  0  0  0
    3.6800   -8.2740  -31.1870 C   0  0  0  0  0  3  0  0  0  0  0  0
    4.6410   -9.0460  -30.5790 C   0  0  0  0  0  3  0  0  0  0  0  0
    4.7190   -8.6510  -28.9190 S   0  0  0  0  0  0  0  0  0  0  0  0
    3.5620   -6.9470  -27.1900 H   0  0  0  0  0  0  0  0  0  0  0  0
   -0.1470  -11.6350  -24.2130 O   0  0  0  0  0  0  0  0  0  0  0  0
    1.0890  -12.0180  -24.6430 C   0  0  0  0  0  0  0  0  0  0  0  0
    2.0170  -12.4920  -23.7180 C   0  0  0  0  0  3  0  0  0  0  0  0
    3.2730  -12.9210  -24.1460 C   0  0  0  0  0  3  0  0  0  0  0  0
    3.6250  -12.8230  -25.4920 C   0  0  0  0  0  3  0  0  0  0  0  0
    2.7290  -12.2580  -26.4010 C   0  0  0  0  0  0  0  0  0  0  0  0
    3.1940  -12.1000  -28.0530 Cl  0  0  0  0  0  0  0  0  0  0  0  0
    1.4720  -11.8350  -25.9710 C   0  0  0  0  0  0  0  0  0  0  0  0
    0.6160  -11.2740  -26.8410 F   0  0  0  0  0  0  0  0  0  0  0  0
  1 10  1  6  0  0  0
  1  2  1  0  0  0  0
  1  8  1  0  0  0  0
  2  3  1  0  0  0  0
  4 24  1  6  0  0  0
  4  3  1  0  0  0  0
  5  4  1  0  0  0  0
  6  1  1  0  0  0  0
  6  5  1  0  0  0  0
  8  7  1  0  0  0  0
  9  8  2  0  0  0  0
 11 10  1  0  0  0  0
 12 11  1  0  0  0  0
 13 12  2  0  0  0  0
 14 13  1  0  0  0  0
 14 15  2  0  0  0  0
 15 16  1  0  0  0  0
 16 11  2  0  0  0  0
 17 15  1  0  0  0  0
 17 23  1  0  0  0  0
 18 22  1  0  0  0  0
 18 17  1  0  0  0  0
 19 18  2  0  0  0  0
 20 21  2  0  0  0  0
 20 19  1  0  0  0  0
 21 22  1  0  0  0  0
 25 24  1  0  0  0  0
 25 26  1  0  0  0  0
 27 26  2  0  0  0  0
 28 27  1  0  0  0  0
 29 31  1  0  0  0  0
 29 28  2  0  0  0  0
 30 29  1  0  0  0  0
 31 25  2  0  0  0  0
 32 31  1  0  0  0  0
M  END
>  <minimizedAffinity>
-8.75046635

$$$$

 OpenBabel10152419363D

 32 35  0  0  1  0  0  0  0  0999 V2000
    0.2070   -5.9950  -26.9080 C   0  0  2  0  0  0  0  0  0  0  0  0
   -0.9830   -6.9660  -27.0270 C   0  0  0  0  0  2  0  0  0  0  0  0
   -1.8520   -7.1190  -25.7750 C   0  0  0  0  0  2  0  0  0  0  0  0
   -1.0790   -7.2740  -24.4630 C   0  0  2  0  0  3  0  0  0  0  0  0
    0.0830   -6.2870  -24.3340 C   0  0  0  0  0  2  0  0  0  0  0  0
    0.9690   -6.1820  -25.5740 C   0  0  0  0  0  2  0  0  0  0  0  0
    0.6510   -3.7010  -27.4400 O   0  0  0  0  0  0  0  0  0  0  0  0
   -0.1910   -4.4920  -26.9310 C   0  0  0  0  0  0  0  0  0  0  0  0
   -1.3220   -4.2110  -26.4390 O   0  0  0  0  0  1  0  0  0  0  0  0
    1.2220   -6.2530  -28.0650 C   0  0  0  0  0  2  0  0  0  0  0  0
    2.4130   -7.1390  -27.7640 C   0  0  0  0  0  0  0  0  0  0  0  0
    3.6520   -6.8750  -28.3350 C   0  0  0  0  0  3  0  0  0  0  0  0
    4.7210   -7.6980  -28.0200 C   0  0  0  0  0  3  0  0  0  0  0  0
    4.5270   -8.7420  -27.1230 C   0  0  0  0  0  3  0  0  0  0  0  0
    3.2690   -8.9400  -26.5470 C   0  0  0  0  0  0  0  0  0  0  0  0
    2.2210   -8.1580  -26.8750 N   0  0  0  0  0  0  0  0  0  0  0  0
    3.1700   -9.9500  -25.5690 N   0  0  0  0  0  0  0  0  0  0  0  0
    2.3660  -11.0330  -25.5870 C   0  0  0  0  0  0  0  0  0  0  0  0
    1.9370  -11.7180  -26.6250 N   0  0  0  0  0  0  0  0  0  0  0  0
    1.1780  -12.7950  -26.2190 C   0  0  0  0  0  3  0  0  0  0  0  0
    1.0280  -12.9440  -24.8600 C   0  0  0  0  0  3  0  0  0  0  0  0
    1.8940  -11.7090  -24.0570 S   0  0  0  0  0  0  0  0  0  0  0  0
    3.4820   -9.6270  -24.6660 H   0  0  0  0  0  0  0  0  0  0  0  0
   -0.7690   -8.6300  -24.0560 O   0  0  0  0  0  0  0  0  0  0  0  0
   -1.2230   -9.0320  -22.8360 C   0  0  0  0  0  0  0  0  0  0  0  0
   -1.3210   -8.1010  -21.8030 C   0  0  0  0  0  3  0  0  0  0  0  0
   -1.8160   -8.4890  -20.5590 C   0  0  0  0  0  3  0  0  0  0  0  0
   -2.1590   -9.8210  -20.3250 C   0  0  0  0  0  3  0  0  0  0  0  0
   -1.9690  -10.7690  -21.3310 C   0  0  0  0  0  0  0  0  0  0  0  0
   -2.3530  -12.4190  -21.0140 Cl  0  0  0  0  0  0  0  0  0  0  0  0
   -1.4780  -10.3780  -22.5760 C   0  0  0  0  0  0  0  0  0  0  0  0
   -1.2770  -11.2930  -23.5380 F   0  0  0  0  0  0  0  0  0  0  0  0
  1 10  1  6  0  0  0
  1  6  1  0  0  0  0
  2  1  1  0  0  0  0
  2  3  1  0  0  0  0
  3  4  1  0  0  0  0
  4  5  1  0  0  0  0
  4 24  1  6  0  0  0
  6  5  1  0  0  0  0
  7  8  2  0  0  0  0
  8  1  1  0  0  0  0
  8  9  1  0  0  0  0
 10 11  1  0  0  0  0
 11 16  1  0  0  0  0
 12 13  1  0  0  0  0
 12 11  2  0  0  0  0
 13 14  2  0  0  0  0
 14 15  1  0  0  0  0
 15 17  1  0  0  0  0
 16 15  2  0  0  0  0
 17 23  1  0  0  0  0
 18 17  1  0  0  0  0
 18 22  1  0  0  0  0
 19 20  1  0  0  0  0
 19 18  2  0  0  0  0
 20 21  2  0  0  0  0
 21 22  1  0  0  0  0
 24 25  1  0  0  0  0
 25 31  2  0  0  0  0
 25 26  1  0  0  0  0
 26 27  2  0  0  0  0
 27 28  1  0  0  0  0
 29 30  1  0  0  0  0
 29 28  2  0  0  0  0
 31 29  1  0  0  0  0
 32 31  1  0  0  0  0
M  END
>  <minimizedAffinity>
-8.74844837

$$$$

 OpenBabel10152419363D

 32 35  0  0  1  0  0  0  0  0999 V2000
   -0.2190  -10.2230  -24.5650 C   0  0  2  0  0  0  0  0  0  0  0  0
    0.9740   -9.2470  -24.5890 C   0  0  0  0  0  2  0  0  0  0  0  0
    0.6210   -7.7580  -24.6450 C   0  0  0  0  0  2  0  0  0  0  0  0
   -0.4780   -7.3890  -25.6440 C   0  0  2  0  0  3  0  0  0  0  0  0
   -1.6750   -8.3400  -25.5960 C   0  0  0  0  0  2  0  0  0  0  0  0
   -1.3080   -9.8230  -25.5890 C   0  0  0  0  0  2  0  0  0  0  0  0
   -1.1720   -9.1840  -22.6280 O   0  0  0  0  0  1  0  0  0  0  0  0
   -0.9610  -10.2890  -23.2010 C   0  0  0  0  0  0  0  0  0  0  0  0
   -1.2810  -11.4450  -22.8000 O   0  0  0  0  0  0  0  0  0  0  0  0
    0.2630  -11.6610  -24.9330 C   0  0  0  0  0  2  0  0  0  0  0  0
    1.7410  -11.8550  -25.2030 C   0  0  0  0  0  0  0  0  0  0  0  0
    2.5050  -12.6830  -24.3920 C   0  0  0  0  0  3  0  0  0  0  0  0
    3.8500  -12.8490  -24.6830 C   0  0  0  0  0  3  0  0  0  0  0  0
    4.3830  -12.2040  -25.7940 C   0  0  0  0  0  3  0  0  0  0  0  0
    3.5600  -11.4120  -26.6000 C   0  0  0  0  0  0  0  0  0  0  0  0
    2.2590  -11.2270  -26.3000 N   0  0  0  0  0  0  0  0  0  0  0  0
    4.1430  -10.8750  -27.7660 N   0  0  0  0  0  0  0  0  0  0  0  0
    4.1710   -9.5810  -28.1460 C   0  0  0  0  0  0  0  0  0  0  0  0
    4.2090   -8.5050  -27.3890 N   0  0  0  0  0  0  0  0  0  0  0  0
    4.2870   -7.3660  -28.1640 C   0  0  0  0  0  3  0  0  0  0  0  0
    4.3160   -7.5680  -29.5230 C   0  0  0  0  0  3  0  0  0  0  0  0
    4.2770   -9.2450  -29.8480 S   0  0  0  0  0  0  0  0  0  0  0  0
    4.2290  -11.5660  -28.4940 H   0  0  0  0  0  0  0  0  0  0  0  0
   -0.0400   -7.0350  -26.9800 O   0  0  0  0  0  0  0  0  0  0  0  0
    0.1370   -5.7100  -27.2460 C   0  0  0  0  0  0  0  0  0  0  0  0
    1.0590   -5.3250  -28.2170 C   0  0  0  0  0  3  0  0  0  0  0  0
    1.2270   -3.9760  -28.5260 C   0  0  0  0  0  3  0  0  0  0  0  0
    0.5150   -3.0030  -27.8230 C   0  0  0  0  0  3  0  0  0  0  0  0
   -0.3360   -3.3860  -26.7850 C   0  0  0  0  0  0  0  0  0  0  0  0
   -1.1740   -2.1710  -25.8950 Cl  0  0  0  0  0  0  0  0  0  0  0  0
   -0.5050   -4.7360  -26.4830 C   0  0  0  0  0  0  0  0  0  0  0  0
   -1.3090   -5.1040  -25.4710 F   0  0  0  0  0  0  0  0  0  0  0  0
  1 10  1  6  0  0  0
  1  8  1  0  0  0  0
  2  1  1  0  0  0  0
  3  2  1  0  0  0  0
  4 24  1  6  0  0  0
  4  5  1  0  0  0  0
  4  3  1  0  0  0  0
  5  6  1  0  0  0  0
  6  1  1  0  0  0  0
  8  9  2  0  0  0  0
  8  7  1  0  0  0  0
 11 10  1  0  0  0  0
 11 12  1  0  0  0  0
 13 12  2  0  0  0  0
 14 13  1  0  0  0  0
 15 16  1  0  0  0  0
 15 14  2  0  0  0  0
 16 11  2  0  0  0  0
 17 15  1  0  0  0  0
 18 17  1  0  0  0  0
 18 19  2  0  0  0  0
 20 19  1  0  0  0  0
 21 20  2  0  0  0  0
 22 21  1  0  0  0  0
 22 18  1  0  0  0  0
 23 17  1  0  0  0  0
 25 24  1  0  0  0  0
 25 31  1  0  0  0  0
 26 25  2  0  0  0  0
 27 26  1  0  0  0  0
 27 28  2  0  0  0  0
 28 29  1  0  0  0  0
 29 31  2  0  0  0  0
 29 30  1  0  0  0  0
 31 32  1  0  0  0  0
M  END
>  <minimizedAffinity>
-8.585886

$$$$

 OpenBabel10152419363D

 32 35  0  0  1  0  0  0  0  0999 V2000
   -1.5400   -8.3020  -23.4130 C   0  0  2  0  0  0  0  0  0  0  0  0
   -1.2690   -9.2400  -24.6050 C   0  0  0  0  0  2  0  0  0  0  0  0
   -1.6240  -10.7140  -24.3930 C   0  0  0  0  0  2  0  0  0  0  0  0
   -1.1800  -11.3020  -23.0510 C   0  0  2  0  0  3  0  0  0  0  0  0
   -1.4800  -10.3820  -21.8660 C   0  0  0  0  0  2  0  0  0  0  0  0
   -1.0750   -8.9240  -22.0750 C   0  0  0  0  0  2  0  0  0  0  0  0
   -3.6230   -7.3680  -24.1430 O   0  0  0  0  0  0  0  0  0  0  0  0
   -3.0420   -7.9670  -23.1950 C   0  0  0  0  0  0  0  0  0  0  0  0
   -3.5360   -8.3280  -22.0880 O   0  0  0  0  0  1  0  0  0  0  0  0
   -0.7600   -6.9630  -23.6020 C   0  0  0  0  0  2  0  0  0  0  0  0
   -0.1990   -6.6700  -24.9780 C   0  0  0  0  0  0  0  0  0  0  0  0
   -0.8930   -5.8600  -25.8670 C   0  0  0  0  0  3  0  0  0  0  0  0
   -0.3360   -5.6000  -27.1090 C   0  0  0  0  0  3  0  0  0  0  0  0
    0.9100   -6.1340  -27.4130 C   0  0  0  0  0  3  0  0  0  0  0  0
    1.5840   -6.9120  -26.4670 C   0  0  0  0  0  0  0  0  0  0  0  0
    1.0310   -7.1890  -25.2700 N   0  0  0  0  0  0  0  0  0  0  0  0
    2.8870   -7.3330  -26.8040 N   0  0  0  0  0  0  0  0  0  0  0  0
    3.3580   -7.6420  -28.0290 C   0  0  0  0  0  0  0  0  0  0  0  0
    3.0030   -7.1420  -29.1940 N   0  0  0  0  0  0  0  0  0  0  0  0
    3.7630   -7.6810  -30.2090 C   0  0  0  0  0  3  0  0  0  0  0  0
    4.7140   -8.5960  -29.8230 C   0  0  0  0  0  3  0  0  0  0  0  0
    4.6790   -8.7670  -28.1240 S   0  0  0  0  0  0  0  0  0  0  0  0
    3.3620   -7.7430  -26.0150 H   0  0  0  0  0  0  0  0  0  0  0  0
    0.1320  -11.9180  -23.0220 O   0  0  0  0  0  0  0  0  0  0  0  0
    0.7370  -12.1490  -24.2220 C   0  0  0  0  0  0  0  0  0  0  0  0
    0.0110  -12.7480  -25.2490 C   0  0  0  0  0  3  0  0  0  0  0  0
    0.6050  -12.9590  -26.4920 C   0  0  0  0  0  3  0  0  0  0  0  0
    1.9440  -12.6250  -26.6950 C   0  0  0  0  0  3  0  0  0  0  0  0
    2.6950  -12.1140  -25.6360 C   0  0  0  0  0  0  0  0  0  0  0  0
    4.3610  -11.7480  -25.8870 Cl  0  0  0  0  0  0  0  0  0  0  0  0
    2.0970  -11.8990  -24.3950 C   0  0  0  0  0  0  0  0  0  0  0  0
    2.8250  -11.4250  -23.3700 F   0  0  0  0  0  0  0  0  0  0  0  0
  1 10  1  6  0  0  0
  1  8  1  0  0  0  0
  1  6  1  0  0  0  0
  2  3  1  0  0  0  0
  2  1  1  0  0  0  0
  3  4  1  0  0  0  0
  4 24  1  6  0  0  0
  4  5  1  0  0  0  0
  6  5  1  0  0  0  0
  7  8  2  0  0  0  0
  8  9  1  0  0  0  0
 11 10  1  0  0  0  0
 12 11  2  0  0  0  0
 13 12  1  0  0  0  0
 14 13  2  0  0  0  0
 14 15  1  0  0  0  0
 15 16  2  0  0  0  0
 16 11  1  0  0  0  0
 17 15  1  0  0  0  0
 17 23  1  0  0  0  0
 18 17  1  0  0  0  0
 19 18  2  0  0  0  0
 20 21  2  0  0  0  0
 20 19  1  0  0  0  0
 21 22  1  0  0  0  0
 22 18  1  0  0  0  0
 25 24  1  0  0  0  0
 26 25  2  0  0  0  0
 27 26  1  0  0  0  0
 28 27  2  0  0  0  0
 28 29  1  0  0  0  0
 29 31  2  0  0  0  0
 30 29  1  0  0  0  0
 31 25  1  0  0  0  0
 31 32  1  0  0  0  0
M  END
>  <minimizedAffinity>
-8.15395737

$$$$

 OpenBabel10152419363D

 32 35  0  0  1  0  0  0  0  0999 V2000
   -2.1760   -8.1290  -22.4290 C   0  0  2  0  0  0  0  0  0  0  0  0
   -1.2850   -6.8790  -22.2980 C   0  0  0  0  0  2  0  0  0  0  0  0
   -0.9980   -6.1200  -23.5960 C   0  0  0  0  0  2  0  0  0  0  0  0
   -0.6280   -6.9990  -24.7940 C   0  0  2  0  0  3  0  0  0  0  0  0
   -1.5350   -8.2220  -24.9410 C   0  0  0  0  0  2  0  0  0  0  0  0
   -1.7720   -8.9960  -23.6450 C   0  0  0  0  0  2  0  0  0  0  0  0
   -4.4490   -8.0610  -21.6720 O   0  0  0  0  0  1  0  0  0  0  0  0
   -3.6830   -7.8170  -22.6460 C   0  0  0  0  0  0  0  0  0  0  0  0
   -3.9950   -7.3490  -23.7790 O   0  0  0  0  0  0  0  0  0  0  0  0
   -2.0370   -9.0180  -21.1550 C   0  0  0  0  0  2  0  0  0  0  0  0
   -1.5060  -10.4250  -21.3390 C   0  0  0  0  0  0  0  0  0  0  0  0
   -1.5620  -11.3440  -20.2990 C   0  0  0  0  0  3  0  0  0  0  0  0
   -1.0830  -12.6260  -20.5130 C   0  0  0  0  0  3  0  0  0  0  0  0
   -0.5890  -12.9590  -21.7690 C   0  0  0  0  0  3  0  0  0  0  0  0
   -0.5900  -12.0080  -22.7920 C   0  0  0  0  0  0  0  0  0  0  0  0
   -1.0290  -10.7520  -22.5770 N   0  0  0  0  0  0  0  0  0  0  0  0
   -0.1720  -12.4450  -24.0660 N   0  0  0  0  0  0  0  0  0  0  0  0
    0.9990  -12.1780  -24.6810 C   0  0  0  0  0  0  0  0  0  0  0  0
    2.1820  -11.9770  -24.1400 N   0  0  0  0  0  0  0  0  0  0  0  0
    3.1390  -11.7900  -25.1150 C   0  0  0  0  0  3  0  0  0  0  0  0
    2.6910  -11.8540  -26.4130 C   0  0  0  0  0  3  0  0  0  0  0  0
    1.0170  -12.1920  -26.4190 S   0  0  0  0  0  0  0  0  0  0  0  0
   -0.9540  -12.6790  -24.6560 H   0  0  0  0  0  0  0  0  0  0  0  0
    0.7840   -7.2660  -24.9830 O   0  0  0  0  0  0  0  0  0  0  0  0
    1.3170   -6.9630  -26.2000 C   0  0  0  0  0  0  0  0  0  0  0  0
    2.3220   -7.7730  -26.7260 C   0  0  0  0  0  3  0  0  0  0  0  0
    2.8530   -7.4980  -27.9860 C   0  0  0  0  0  3  0  0  0  0  0  0
    2.4220   -6.3780  -28.6980 C   0  0  0  0  0  3  0  0  0  0  0  0
    1.4850   -5.5150  -28.1270 C   0  0  0  0  0  0  0  0  0  0  0  0
    0.9950   -4.1110  -28.9980 Cl  0  0  0  0  0  0  0  0  0  0  0  0
    0.9520   -5.7960  -26.8690 C   0  0  0  0  0  0  0  0  0  0  0  0
    0.0650   -4.9560  -26.3110 F   0  0  0  0  0  0  0  0  0  0  0  0
  1  2  1  0  0  0  0
  1 10  1  1  0  0  0
  3  2  1  0  0  0  0
  4 24  1  1  0  0  0
  4  3  1  0  0  0  0
  5  4  1  0  0  0  0
  5  6  1  0  0  0  0
  6  1  1  0  0  0  0
  8  1  1  0  0  0  0
  8  7  1  0  0  0  0
  9  8  2  0  0  0  0
 11 10  1  0  0  0  0
 11 12  1  0  0  0  0
 13 12  2  0  0  0  0
 14 13  1  0  0  0  0
 15 16  1  0  0  0  0
 15 14  2  0  0  0  0
 16 11  2  0  0  0  0
 17 15  1  0  0  0  0
 18 19  2  0  0  0  0
 18 17  1  0  0  0  0
 20 19  1  0  0  0  0
 21 20  2  0  0  0  0
 22 21  1  0  0  0  0
 22 18  1  0  0  0  0
 23 17  1  0  0  0  0
 25 24  1  0  0  0  0
 26 25  1  0  0  0  0
 27 26  2  0  0  0  0
 28 29  2  0  0  0  0
 28 27  1  0  0  0  0
 29 31  1  0  0  0  0
 30 29  1  0  0  0  0
 31 32  1  0  0  0  0
 31 25  2  0  0  0  0
M  END
>  <minimizedAffinity>
-8.09987736

$$$$

 OpenBabel10152419363D

 32 35  0  0  1  0  0  0  0  0999 V2000
    3.1370   -8.2520  -28.0370 C   0  0  2  0  0  0  0  0  0  0  0  0
    3.2050   -8.8000  -26.5990 C   0  0  0  0  0  2  0  0  0  0  0  0
    4.3280   -9.8010  -26.3140 C   0  0  0  0  0  2  0  0  0  0  0  0
    4.5170  -10.8840  -27.3800 C   0  0  2  0  0  3  0  0  0  0  0  0
    4.4810  -10.3320  -28.8060 C   0  0  0  0  0  2  0  0  0  0  0  0
    3.3270   -9.3720  -29.0880 C   0  0  0  0  0  2  0  0  0  0  0  0
    4.7190   -6.5710  -27.3920 O   0  0  0  0  0  1  0  0  0  0  0  0
    4.2340   -7.2030  -28.3720 C   0  0  0  0  0  0  0  0  0  0  0  0
    4.5350   -7.0860  -29.5950 O   0  0  0  0  0  0  0  0  0  0  0  0
    1.7420   -7.6030  -28.2940 C   0  0  0  0  0  2  0  0  0  0  0  0
    1.0770   -6.8910  -27.1330 C   0  0  0  0  0  0  0  0  0  0  0  0
    0.7890   -5.5350  -27.2070 C   0  0  0  0  0  3  0  0  0  0  0  0
    0.1640   -4.9250  -26.1310 C   0  0  0  0  0  3  0  0  0  0  0  0
   -0.1790   -5.6960  -25.0260 C   0  0  0  0  0  3  0  0  0  0  0  0
    0.1000   -7.0650  -25.0190 C   0  0  0  0  0  0  0  0  0  0  0  0
    0.7340   -7.6530  -26.0530 N   0  0  0  0  0  0  0  0  0  0  0  0
   -0.3690   -7.8030  -23.9120 N   0  0  0  0  0  0  0  0  0  0  0  0
   -1.6200   -7.8200  -23.4090 C   0  0  0  0  0  0  0  0  0  0  0  0
   -2.7620   -7.6670  -24.0460 N   0  0  0  0  0  0  0  0  0  0  0  0
   -3.8260   -7.8080  -23.1800 C   0  0  0  0  0  3  0  0  0  0  0  0
   -3.5020   -8.0770  -21.8720 C   0  0  0  0  0  3  0  0  0  0  0  0
   -1.8040   -8.1900  -21.7210 S   0  0  0  0  0  0  0  0  0  0  0  0
    0.3790   -8.0500  -23.2840 H   0  0  0  0  0  0  0  0  0  0  0  0
    3.7710  -12.1120  -27.1870 O   0  0  0  0  0  0  0  0  0  0  0  0
    3.0990  -12.2530  -26.0100 C   0  0  0  0  0  0  0  0  0  0  0  0
    3.7800  -12.7160  -24.8850 C   0  0  0  0  0  3  0  0  0  0  0  0
    3.1150  -12.8330  -23.6660 C   0  0  0  0  0  3  0  0  0  0  0  0
    1.7530  -12.5430  -23.5800 C   0  0  0  0  0  3  0  0  0  0  0  0
    1.0520  -12.1720  -24.7280 C   0  0  0  0  0  0  0  0  0  0  0  0
   -0.6390  -11.8610  -24.6170 Cl  0  0  0  0  0  0  0  0  0  0  0  0
    1.7210  -12.0510  -25.9460 C   0  0  0  0  0  0  0  0  0  0  0  0
    1.0440  -11.7130  -27.0550 F   0  0  0  0  0  0  0  0  0  0  0  0
  1 10  1  6  0  0  0
  1  2  1  0  0  0  0
  2  3  1  0  0  0  0
  4 24  1  6  0  0  0
  4  3  1  0  0  0  0
  5  4  1  0  0  0  0
  6  5  1  0  0  0  0
  6  1  1  0  0  0  0
  8  1  1  0  0  0  0
  8  7  1  0  0  0  0
  9  8  2  0  0  0  0
 10 11  1  0  0  0  0
 11 16  1  0  0  0  0
 12 11  2  0  0  0  0
 12 13  1  0  0  0  0
 13 14  2  0  0  0  0
 14 15  1  0  0  0  0
 15 17  1  0  0  0  0
 16 15  2  0  0  0  0
 17 18  1  0  0  0  0
 17 23  1  0  0  0  0
 18 22  1  0  0  0  0
 19 18  2  0  0  0  0
 19 20  1  0  0  0  0
 20 21  2  0  0  0  0
 21 22  1  0  0  0  0
 24 25  1  0  0  0  0
 25 31  2  0  0  0  0
 25 26  1  0  0  0  0
 26 27  2  0  0  0  0
 27 28  1  0  0  0  0
 29 30  1  0  0  0  0
 29 28  2  0  0  0  0
 31 29  1  0  0  0  0
 32 31  1  0  0  0  0
M  END
>  <minimizedAffinity>
-7.7303071

$$$$

 OpenBabel10152419363D

 32 35  0  0  1  0  0  0  0  0999 V2000
   -1.1520   -7.7160  -24.6200 C   0  0  2  0  0  0  0  0  0  0  0  0
    0.3150   -8.1580  -24.7890 C   0  0  0  0  0  2  0  0  0  0  0  0
    1.3140   -7.0510  -25.1350 C   0  0  0  0  0  2  0  0  0  0  0  0
    0.8510   -6.0750  -26.2200 C   0  0  2  0  0  3  0  0  0  0  0  0
   -0.5950   -5.6130  -26.0320 C   0  0  0  0  0  2  0  0  0  0  0  0
   -1.5870   -6.7350  -25.7350 C   0  0  0  0  0  2  0  0  0  0  0  0
   -0.9070   -5.8230  -23.1700 O   0  0  0  0  0  0  0  0  0  0  0  0
   -1.4410   -6.9610  -23.2920 C   0  0  0  0  0  0  0  0  0  0  0  0
   -2.1830   -7.5630  -22.4630 O   0  0  0  0  0  1  0  0  0  0  0  0
   -2.0940   -8.9570  -24.6950 C   0  0  0  0  0  2  0  0  0  0  0  0
   -1.4500  -10.3270  -24.6490 C   0  0  0  0  0  0  0  0  0  0  0  0
   -0.9710  -10.9230  -25.8100 C   0  0  0  0  0  3  0  0  0  0  0  0
   -0.3720  -12.1690  -25.7230 C   0  0  0  0  0  3  0  0  0  0  0  0
   -0.2430  -12.7690  -24.4760 C   0  0  0  0  0  3  0  0  0  0  0  0
   -0.7070  -12.1090  -23.3340 C   0  0  0  0  0  0  0  0  0  0  0  0
   -1.3160  -10.9100  -23.4210 N   0  0  0  0  0  0  0  0  0  0  0  0
   -0.4490  -12.7280  -22.0940 N   0  0  0  0  0  0  0  0  0  0  0  0
   -1.2560  -12.7680  -21.0140 C   0  0  0  0  0  0  0  0  0  0  0  0
   -2.5720  -12.7800  -20.9740 N   0  0  0  0  0  0  0  0  0  0  0  0
   -3.0190  -12.8820  -19.6740 C   0  0  0  0  0  3  0  0  0  0  0  0
   -2.0430  -12.9560  -18.7090 C   0  0  0  0  0  3  0  0  0  0  0  0
   -0.5060  -12.9290  -19.4540 S   0  0  0  0  0  0  0  0  0  0  0  0
    0.5390  -12.8390  -21.9300 H   0  0  0  0  0  0  0  0  0  0  0  0
    1.2050   -6.4170  -27.5840 O   0  0  0  0  0  0  0  0  0  0  0  0
    2.3590   -7.1180  -27.7710 C   0  0  0  0  0  0  0  0  0  0  0  0
    3.0760   -7.5600  -26.6610 C   0  0  0  0  0  3  0  0  0  0  0  0
    4.2400   -8.3080  -26.8350 C   0  0  0  0  0  3  0  0  0  0  0  0
    4.7210   -8.5660  -28.1190 C   0  0  0  0  0  3  0  0  0  0  0  0
    4.0530   -8.0400  -29.2250 C   0  0  0  0  0  0  0  0  0  0  0  0
    4.6840   -8.3280  -30.8030 Cl  0  0  0  0  0  0  0  0  0  0  0  0
    2.8870   -7.2970  -29.0490 C   0  0  0  0  0  0  0  0  0  0  0  0
    2.2540   -6.7740  -30.1120 F   0  0  0  0  0  0  0  0  0  0  0  0
  1 10  1  6  0  0  0
  1  8  1  0  0  0  0
  2  1  1  0  0  0  0
  3  2  1  0  0  0  0
  4 24  1  6  0  0  0
  4  5  1  0  0  0  0
  4  3  1  0  0  0  0
  5  6  1  0  0  0  0
  6  1  1  0  0  0  0
  8  7  2  0  0  0  0
  8  9  1  0  0  0  0
 10 11  1  0  0  0  0
 11 16  1  0  0  0  0
 12 13  1  0  0  0  0
 12 11  2  0  0  0  0
 13 14  2  0  0  0  0
 14 15  1  0  0  0  0
 15 17  1  0  0  0  0
 16 15  2  0  0  0  0
 17 23  1  0  0  0  0
 17 18  1  0  0  0  0
 18 19  2  0  0  0  0
 18 22  1  0  0  0  0
 19 20  1  0  0  0  0
 20 21  2  0  0  0  0
 22 21  1  0  0  0  0
 25 24  1  0  0  0  0
 25 26  1  0  0  0  0
 27 26  2  0  0  0  0
 28 27  1  0  0  0  0
 29 31  1  0  0  0  0
 29 28  2  0  0  0  0
 30 29  1  0  0  0  0
 31 25  2  0  0  0  0
 32 31  1  0  0  0  0
M  END
>  <minimizedAffinity>
-7.72982407

$$$$

 OpenBabel10152419363D

 32 35  0  0  1  0  0  0  0  0999 V2000
   -0.4230  -10.7740  -24.4420 C   0  0  2  0  0  0  0  0  0  0  0  0
   -0.0940  -10.3620  -25.8900 C   0  0  0  0  0  2  0  0  0  0  0  0
    1.3010  -10.7410  -26.3940 C   0  0  0  0  0  2  0  0  0  0  0  0
    2.4440  -10.4610  -25.4150 C   0  0  2  0  0  3  0  0  0  0  0  0
    2.1260  -10.9000  -23.9840 C   0  0  0  0  0  2  0  0  0  0  0  0
    0.7500  -10.4720  -23.4790 C   0  0  0  0  0  2  0  0  0  0  0  0
   -0.8650  -12.9590  -25.3190 O   0  0  0  0  0  0  0  0  0  0  0  0
   -0.7080  -12.2910  -24.2600 C   0  0  0  0  0  0  0  0  0  0  0  0
   -0.7530  -12.7070  -23.0660 O   0  0  0  0  0  1  0  0  0  0  0  0
   -1.6630   -9.9760  -23.9310 C   0  0  0  0  0  2  0  0  0  0  0  0
   -1.4700   -8.5050  -23.6250 C   0  0  0  0  0  0  0  0  0  0  0  0
   -1.7740   -7.9990  -22.3680 C   0  0  0  0  0  3  0  0  0  0  0  0
   -1.5650   -6.6510  -22.1220 C   0  0  0  0  0  3  0  0  0  0  0  0
   -1.0330   -5.8570  -23.1300 C   0  0  0  0  0  3  0  0  0  0  0  0
   -0.7080   -6.4240  -24.3660 C   0  0  0  0  0  0  0  0  0  0  0  0
   -0.9380   -7.7290  -24.6150 N   0  0  0  0  0  0  0  0  0  0  0  0
   -0.0760   -5.5840  -25.3040 N   0  0  0  0  0  0  0  0  0  0  0  0
   -0.4420   -4.3360  -25.6640 C   0  0  0  0  0  0  0  0  0  0  0  0
   -1.0340   -3.4130  -24.9360 N   0  0  0  0  0  0  0  0  0  0  0  0
   -1.1860   -2.2470  -25.6570 C   0  0  0  0  0  3  0  0  0  0  0  0
   -0.7020   -2.2710  -26.9430 C   0  0  0  0  0  3  0  0  0  0  0  0
   -0.0010   -3.7970  -27.2570 S   0  0  0  0  0  0  0  0  0  0  0  0
    0.4700   -6.1090  -25.9690 H   0  0  0  0  0  0  0  0  0  0  0  0
    3.0790   -9.1620  -25.5230 O   0  0  0  0  0  0  0  0  0  0  0  0
    3.3720   -8.7160  -26.7770 C   0  0  0  0  0  0  0  0  0  0  0  0
    4.4230   -9.3000  -27.4810 C   0  0  0  0  0  3  0  0  0  0  0  0
    4.7130   -8.8780  -28.7780 C   0  0  0  0  0  3  0  0  0  0  0  0
    3.9910   -7.8310  -29.3520 C   0  0  0  0  0  3  0  0  0  0  0  0
    3.0030   -7.1840  -28.6090 C   0  0  0  0  0  0  0  0  0  0  0  0
    2.1500   -5.8630  -29.3130 Cl  0  0  0  0  0  0  0  0  0  0  0  0
    2.7120   -7.6120  -27.3140 C   0  0  0  0  0  0  0  0  0  0  0  0
    1.7740   -6.9770  -26.5910 F   0  0  0  0  0  0  0  0  0  0  0  0
  1  8  1  0  0  0  0
  1 10  1  1  0  0  0
  1  6  1  0  0  0  0
  2  1  1  0  0  0  0
  3  2  1  0  0  0  0
  3  4  1  0  0  0  0
  4 24  1  1  0  0  0
  4  5  1  0  0  0  0
  5  6  1  0  0  0  0
  7  8  2  0  0  0  0
  8  9  1  0  0  0  0
 10 11  1  0  0  0  0
 11 12  1  0  0  0  0
 12 13  2  0  0  0  0
 14 13  1  0  0  0  0
 15 14  2  0  0  0  0
 16 15  1  0  0  0  0
 16 11  2  0  0  0  0
 17 15  1  0  0  0  0
 18 17  1  0  0  0  0
 18 19  2  0  0  0  0
 20 19  1  0  0  0  0
 21 20  2  0  0  0  0
 22 21  1  0  0  0  0
 22 18  1  0  0  0  0
 23 17  1  0  0  0  0
 25 24  1  0  0  0  0
 26 25  2  0  0  0  0
 27 26  1  0  0  0  0
 28 27  2  0  0  0  0
 28 29  1  0  0  0  0
 29 31  2  0  0  0  0
 30 29  1  0  0  0  0
 31 25  1  0  0  0  0
 31 32  1  0  0  0  0
M  END
>  <minimizedAffinity>
-7.71403503

$$$$
