
 OpenBabel10152419363D

 32 35  0  0  1  0  0  0  0  0999 V2000
   -0.2190  -10.2230  -24.5650 C   0  0  2  0  0  0  0  0  0  0  0  0
    0.9740   -9.2470  -24.5890 C   0  0  0  0  0  2  0  0  0  0  0  0
    0.6210   -7.7580  -24.6450 C   0  0  0  0  0  2  0  0  0  0  0  0
   -0.4780   -7.3890  -25.6440 C   0  0  2  0  0  3  0  0  0  0  0  0
   -1.6750   -8.3400  -25.5960 C   0  0  0  0  0  2  0  0  0  0  0  0
   -1.3080   -9.8230  -25.5890 C   0  0  0  0  0  2  0  0  0  0  0  0
   -1.1720   -9.1840  -22.6280 O   0  0  0  0  0  1  0  0  0  0  0  0
   -0.9610  -10.2890  -23.2010 C   0  0  0  0  0  0  0  0  0  0  0  0
   -1.2810  -11.4450  -22.8000 O   0  0  0  0  0  0  0  0  0  0  0  0
    0.2630  -11.6610  -24.9330 C   0  0  0  0  0  2  0  0  0  0  0  0
    1.7410  -11.8550  -25.2030 C   0  0  0  0  0  0  0  0  0  0  0  0
    2.5050  -12.6830  -24.3920 C   0  0  0  0  0  3  0  0  0  0  0  0
    3.8500  -12.8490  -24.6830 C   0  0  0  0  0  3  0  0  0  0  0  0
    4.3830  -12.2040  -25.7940 C   0  0  0  0  0  3  0  0  0  0  0  0
    3.5600  -11.4120  -26.6000 C   0  0  0  0  0  0  0  0  0  0  0  0
    2.2590  -11.2270  -26.3000 N   0  0  0  0  0  0  0  0  0  0  0  0
    4.1430  -10.8750  -27.7660 N   0  0  0  0  0  0  0  0  0  0  0  0
    4.1710   -9.5810  -28.1460 C   0  0  0  0  0  0  0  0  0  0  0  0
    4.2090   -8.5050  -27.3890 N   0  0  0  0  0  0  0  0  0  0  0  0
    4.2870   -7.3660  -28.1640 C   0  0  0  0  0  3  0  0  0  0  0  0
    4.3160   -7.5680  -29.5230 C   0  0  0  0  0  3  0  0  0  0  0  0
    4.2770   -9.2450  -29.8480 S   0  0  0  0  0  0  0  0  0  0  0  0
    4.2290  -11.5660  -28.4940 H   0  0  0  0  0  0  0  0  0  0  0  0
   -0.0400   -7.0350  -26.9800 O   0  0  0  0  0  0  0  0  0  0  0  0
    0.1370   -5.7100  -27.2460 C   0  0  0  0  0  0  0  0  0  0  0  0
    1.0590   -5.3250  -28.2170 C   0  0  0  0  0  3  0  0  0  0  0  0
    1.2270   -3.9760  -28.5260 C   0  0  0  0  0  3  0  0  0  0  0  0
    0.5150   -3.0030  -27.8230 C   0  0  0  0  0  3  0  0  0  0  0  0
   -0.3360   -3.3860  -26.7850 C   0  0  0  0  0  0  0  0  0  0  0  0
   -1.1740   -2.1710  -25.8950 Cl  0  0  0  0  0  0  0  0  0  0  0  0
   -0.5050   -4.7360  -26.4830 C   0  0  0  0  0  0  0  0  0  0  0  0
   -1.3090   -5.1040  -25.4710 F   0  0  0  0  0  0  0  0  0  0  0  0
  1 10  1  6  0  0  0
  1  8  1  0  0  0  0
  2  1  1  0  0  0  0
  3  2  1  0  0  0  0
  4 24  1  6  0  0  0
  4  5  1  0  0  0  0
  4  3  1  0  0  0  0
  5  6  1  0  0  0  0
  6  1  1  0  0  0  0
  8  9  2  0  0  0  0
  8  7  1  0  0  0  0
 11 10  1  0  0  0  0
 11 12  1  0  0  0  0
 13 12  2  0  0  0  0
 14 13  1  0  0  0  0
 15 16  1  0  0  0  0
 15 14  2  0  0  0  0
 16 11  2  0  0  0  0
 17 15  1  0  0  0  0
 18 17  1  0  0  0  0
 18 19  2  0  0  0  0
 20 19  1  0  0  0  0
 21 20  2  0  0  0  0
 22 21  1  0  0  0  0
 22 18  1  0  0  0  0
 23 17  1  0  0  0  0
 25 24  1  0  0  0  0
 25 31  1  0  0  0  0
 26 25  2  0  0  0  0
 27 26  1  0  0  0  0
 27 28  2  0  0  0  0
 28 29  1  0  0  0  0
 29 31  2  0  0  0  0
 29 30  1  0  0  0  0
 31 32  1  0  0  0  0
M  END
>  <minimizedAffinity>
-8.585886

$$$$
