
 OpenBabel10152419363D

 32 35  0  0  1  0  0  0  0  0999 V2000
   -2.1760   -8.1290  -22.4290 C   0  0  2  0  0  0  0  0  0  0  0  0
   -1.2850   -6.8790  -22.2980 C   0  0  0  0  0  2  0  0  0  0  0  0
   -0.9980   -6.1200  -23.5960 C   0  0  0  0  0  2  0  0  0  0  0  0
   -0.6280   -6.9990  -24.7940 C   0  0  2  0  0  3  0  0  0  0  0  0
   -1.5350   -8.2220  -24.9410 C   0  0  0  0  0  2  0  0  0  0  0  0
   -1.7720   -8.9960  -23.6450 C   0  0  0  0  0  2  0  0  0  0  0  0
   -4.4490   -8.0610  -21.6720 O   0  0  0  0  0  1  0  0  0  0  0  0
   -3.6830   -7.8170  -22.6460 C   0  0  0  0  0  0  0  0  0  0  0  0
   -3.9950   -7.3490  -23.7790 O   0  0  0  0  0  0  0  0  0  0  0  0
   -2.0370   -9.0180  -21.1550 C   0  0  0  0  0  2  0  0  0  0  0  0
   -1.5060  -10.4250  -21.3390 C   0  0  0  0  0  0  0  0  0  0  0  0
   -1.5620  -11.3440  -20.2990 C   0  0  0  0  0  3  0  0  0  0  0  0
   -1.0830  -12.6260  -20.5130 C   0  0  0  0  0  3  0  0  0  0  0  0
   -0.5890  -12.9590  -21.7690 C   0  0  0  0  0  3  0  0  0  0  0  0
   -0.5900  -12.0080  -22.7920 C   0  0  0  0  0  0  0  0  0  0  0  0
   -1.0290  -10.7520  -22.5770 N   0  0  0  0  0  0  0  0  0  0  0  0
   -0.1720  -12.4450  -24.0660 N   0  0  0  0  0  0  0  0  0  0  0  0
    0.9990  -12.1780  -24.6810 C   0  0  0  0  0  0  0  0  0  0  0  0
    2.1820  -11.9770  -24.1400 N   0  0  0  0  0  0  0  0  0  0  0  0
    3.1390  -11.7900  -25.1150 C   0  0  0  0  0  3  0  0  0  0  0  0
    2.6910  -11.8540  -26.4130 C   0  0  0  0  0  3  0  0  0  0  0  0
    1.0170  -12.1920  -26.4190 S   0  0  0  0  0  0  0  0  0  0  0  0
   -0.9540  -12.6790  -24.6560 H   0  0  0  0  0  0  0  0  0  0  0  0
    0.7840   -7.2660  -24.9830 O   0  0  0  0  0  0  0  0  0  0  0  0
    1.3170   -6.9630  -26.2000 C   0  0  0  0  0  0  0  0  0  0  0  0
    2.3220   -7.7730  -26.7260 C   0  0  0  0  0  3  0  0  0  0  0  0
    2.8530   -7.4980  -27.9860 C   0  0  0  0  0  3  0  0  0  0  0  0
    2.4220   -6.3780  -28.6980 C   0  0  0  0  0  3  0  0  0  0  0  0
    1.4850   -5.5150  -28.1270 C   0  0  0  0  0  0  0  0  0  0  0  0
    0.9950   -4.1110  -28.9980 Cl  0  0  0  0  0  0  0  0  0  0  0  0
    0.9520   -5.7960  -26.8690 C   0  0  0  0  0  0  0  0  0  0  0  0
    0.0650   -4.9560  -26.3110 F   0  0  0  0  0  0  0  0  0  0  0  0
  1  2  1  0  0  0  0
  1 10  1  1  0  0  0
  3  2  1  0  0  0  0
  4 24  1  1  0  0  0
  4  3  1  0  0  0  0
  5  4  1  0  0  0  0
  5  6  1  0  0  0  0
  6  1  1  0  0  0  0
  8  1  1  0  0  0  0
  8  7  1  0  0  0  0
  9  8  2  0  0  0  0
 11 10  1  0  0  0  0
 11 12  1  0  0  0  0
 13 12  2  0  0  0  0
 14 13  1  0  0  0  0
 15 16  1  0  0  0  0
 15 14  2  0  0  0  0
 16 11  2  0  0  0  0
 17 15  1  0  0  0  0
 18 19  2  0  0  0  0
 18 17  1  0  0  0  0
 20 19  1  0  0  0  0
 21 20  2  0  0  0  0
 22 21  1  0  0  0  0
 22 18  1  0  0  0  0
 23 17  1  0  0  0  0
 25 24  1  0  0  0  0
 26 25  1  0  0  0  0
 27 26  2  0  0  0  0
 28 29  2  0  0  0  0
 28 27  1  0  0  0  0
 29 31  1  0  0  0  0
 30 29  1  0  0  0  0
 31 32  1  0  0  0  0
 31 25  2  0  0  0  0
M  END
>  <minimizedAffinity>
-8.09987736

$$$$
