REMARK  Name = 
REMARK  6 active torsions:
REMARK  status: ('A' for Active; 'I' for Inactive)
REMARK    1  A    between atoms: C_2  and  C_4
REMARK    2  A    between atoms: C_4  and  C_5
REMARK    3  A    between atoms: C_5  and  C_6
REMARK    4  A    between atoms: C_10  and  N_11
REMARK    5  A    between atoms: C_20  and  O_21
REMARK    6  A    between atoms: O_21  and  C_22
REMARK                            x       y       z     vdW  Elec       q    Type
REMARK                         _______ _______ _______ _____ _____    ______ ____
ROOT
ATOM      1  C   UNL     1       2.835  -0.674  -1.513  0.00  0.00    +0.016 C 
ATOM      2  C   UNL     1       4.315  -0.260  -1.400  0.00  0.00    +0.017 C 
ATOM      3  C   UNL     1       5.332  -1.234  -2.002  0.00  0.00    +0.045 C 
ATOM      4  C   UNL     1       5.093  -2.709  -1.670  0.00  0.00    +0.174 C 
ATOM      5  C   UNL     1       3.628  -3.125  -1.814  0.00  0.00    +0.045 C 
ATOM      6  C   UNL     1       2.629  -2.168  -1.166  0.00  0.00    +0.017 C 
ENDROOT
BRANCH   1   8
ATOM      7  O   UNL     1       3.061  -0.318  -3.872  0.00  0.00    -0.549 OA
ATOM      8  C   UNL     1       2.234  -0.510  -2.937  0.00  0.00    +0.048 C 
ATOM      9  O   UNL     1       0.974  -0.586  -3.019  0.00  0.00    -0.549 OA
ENDBRANCH   1   8
BRANCH   1  10
ATOM     10  C   UNL     1       1.972   0.160  -0.516  0.00  0.00    +0.068 C 
BRANCH  10  11
ATOM     11  C   UNL     1       2.136   1.666  -0.540  0.00  0.00    +0.044 A 
ATOM     12  C   UNL     1       1.703   2.407  -1.632  0.00  0.00    +0.023 A 
ATOM     13  C   UNL     1       1.854   3.784  -1.607  0.00  0.00    +0.005 A 
ATOM     14  C   UNL     1       2.407   4.381  -0.480  0.00  0.00    +0.044 A 
ATOM     15  C   UNL     1       2.791   3.592   0.608  0.00  0.00    +0.125 A 
ATOM     16  N   UNL     1       2.671   2.250   0.573  0.00  0.00    -0.237 NA
BRANCH  15  17
ATOM     17  N   UNL     1       3.246   4.272   1.756  0.00  0.00    -0.279 N 
ATOM     18  C   UNL     1       3.944   3.759   2.790  0.00  0.00    +0.163 A 
ATOM     19  N   UNL     1       4.818   2.775   2.781  0.00  0.00    -0.233 NA
ATOM     20  C   UNL     1       5.356   2.589   4.037  0.00  0.00    +0.120 A 
ATOM     21  C   UNL     1       4.899   3.439   5.016  0.00  0.00    +0.068 A 
ATOM     22  S   UNL     1       3.777   4.534   4.337  0.00  0.00    -0.061 S 
ATOM     23  H   UNL     1       2.704   5.102   1.938  0.00  0.00    +0.155 HD
ENDBRANCH  15  17
ENDBRANCH  10  11
ENDBRANCH   1  10
BRANCH   4  24
ATOM     24  O   UNL     1       5.752  -3.215  -0.482  0.00  0.00    -0.486 OA
BRANCH  24  25
ATOM     25  C   UNL     1       5.427  -2.631   0.706  0.00  0.00    +0.157 A 
ATOM     26  C   UNL     1       6.154  -1.526   1.145  0.00  0.00    +0.049 A 
ATOM     27  C   UNL     1       5.812  -0.896   2.341  0.00  0.00    +0.005 A 
ATOM     28  C   UNL     1       4.780  -1.404   3.130  0.00  0.00    +0.023 A 
ATOM     29  C   UNL     1       4.117  -2.567   2.735  0.00  0.00    +0.080 A 
ATOM     30 CL   UNL     1       2.875  -3.210   3.742  0.00  0.00    -0.080 Cl
ATOM     31  C   UNL     1       4.458  -3.192   1.536  0.00  0.00    +0.183 A 
ATOM     32  F   UNL     1       3.834  -4.322   1.165  0.00  0.00    -0.200 F 
ENDBRANCH  24  25
ENDBRANCH   4  24
TORSDOF 6
