
 OpenBabel10152418373D

 38 41  0  0  1  0  0  0  0  0999 V2000
    1.2510   -6.0780  -27.9690 C   0  0  0  0  0  0  0  0  0  0  0  0
    0.8470   -4.9440  -27.2620 C   0  0  0  0  0  3  0  0  0  0  0  0
   -0.2910   -4.9860  -26.4580 C   0  0  0  0  0  3  0  0  0  0  0  0
   -0.9820   -6.1870  -26.2860 C   0  0  0  0  0  3  0  0  0  0  0  0
   -0.5520   -7.3600  -26.9280 C   0  0  0  0  0  0  0  0  0  0  0  0
    0.5340   -7.2750  -27.8290 C   0  0  0  0  0  3  0  0  0  0  0  0
    3.6760   -6.6000  -28.3480 C   0  0  0  0  0  0  0  0  0  0  0  0
    4.7420   -6.0200  -28.5300 O   0  0  0  0  0  0  0  0  0  0  0  0
    2.4780   -6.0040  -28.6540 N   0  0  0  0  0  0  0  0  0  0  0  0
    2.5530   -5.2910  -29.3710 H   0  0  0  0  0  0  0  0  0  0  0  0
    4.0750  -10.7160  -27.2810 C   0  0  0  0  0  0  0  0  0  0  0  0
    3.6300   -9.7880  -26.3360 C   0  0  0  0  0  3  0  0  0  0  0  0
    3.4410   -8.4510  -26.6990 C   0  0  0  0  0  3  0  0  0  0  0  0
    3.6890   -8.0440  -28.0140 C   0  0  0  0  0  0  0  0  0  0  0  0
    4.1630   -8.9650  -28.9540 C   0  0  0  0  0  3  0  0  0  0  0  0
    4.3620  -10.2900  -28.5800 C   0  0  0  0  0  0  0  0  0  0  0  0
    4.9110  -11.1210  -29.4780 F   0  0  0  0  0  0  0  0  0  0  0  0
    4.5610  -12.0300  -25.4220 C   0  0  0  0  0  1  0  0  0  0  0  0
    4.2800  -11.9890  -26.8220 O   0  0  0  0  0  0  0  0  0  0  0  0
   -1.1490   -8.7280  -26.5700 C   0  0  1  0  0  3  0  0  0  0  0  0
   -0.0880   -9.8230  -26.7150 C   0  0  0  0  0  1  0  0  0  0  0  0
   -1.6820   -8.7590  -25.2090 N   0  0  0  0  0  0  0  0  0  0  0  0
   -2.6810   -8.7340  -25.0810 H   0  0  0  0  0  0  0  0  0  0  0  0
   -0.8930   -9.4360  -24.2760 C   0  0  0  0  0  0  0  0  0  0  0  0
   -0.2640  -10.5400  -24.7140 N   0  0  0  0  0  0  0  0  0  0  0  0
    0.0240  -11.4580  -23.7970 C   0  0  0  0  0  3  0  0  0  0  0  0
   -0.3660  -11.4150  -22.5250 N   0  0  0  0  0  0  0  0  0  0  0  0
   -0.9220  -10.2690  -22.0840 C   0  0  0  0  0  0  0  0  0  0  0  0
   -1.4740  -10.1380  -20.8080 C   0  0  0  0  0  0  0  0  0  0  0  0
   -1.8760   -8.9080  -20.2600 C   0  0  0  0  0  3  0  0  0  0  0  0
   -1.8120   -7.7660  -21.0380 C   0  0  0  0  0  3  0  0  0  0  0  0
   -1.4740   -7.9000  -22.3790 C   0  0  0  0  0  3  0  0  0  0  0  0
   -1.0660   -9.1570  -22.9130 C   0  0  0  0  0  0  0  0  0  0  0  0
   -1.9730  -11.3580  -20.1460 C   0  0  0  0  0  0  0  0  0  0  0  0
   -1.0060  -12.0220  -19.4310 N   0  0  0  0  0  0  0  0  0  0  0  0
   -3.1270  -11.7440  -20.2210 O   0  0  0  0  0  0  0  0  0  0  0  0
   -1.2780  -12.8340  -18.8950 H   0  0  0  0  0  0  0  0  0  0  0  0
   -0.0550  -11.6820  -19.3520 H   0  0  0  0  0  0  0  0  0  0  0  0
  1  6  2  0  0  0  0
  1  2  1  0  0  0  0
  2  3  2  0  0  0  0
  3  4  1  0  0  0  0
  5 20  1  0  0  0  0
  5  4  2  0  0  0  0
  6  5  1  0  0  0  0
  7 14  1  0  0  0  0
  8  7  2  0  0  0  0
  9  7  1  0  0  0  0
  9  1  1  0  0  0  0
 10  9  1  0  0  0  0
 11 19  1  0  0  0  0
 11 12  1  0  0  0  0
 13 12  2  0  0  0  0
 14 13  1  0  0  0  0
 15 16  1  0  0  0  0
 15 14  2  0  0  0  0
 16 11  2  0  0  0  0
 17 16  1  0  0  0  0
 19 18  1  0  0  0  0
 20 21  1  1  0  0  0
 20 22  1  0  0  0  0
 22 23  1  0  0  0  0
 22 24  1  0  0  0  0
 24 33  1  0  0  0  0
 25 24  2  0  0  0  0
 25 26  1  0  0  0  0
 26 27  2  0  0  0  0
 27 28  1  0  0  0  0
 28 29  1  0  0  0  0
 29 30  2  0  0  0  0
 29 34  1  0  0  0  0
 31 30  1  0  0  0  0
 32 31  2  0  0  0  0
 33 32  1  0  0  0  0
 33 28  2  0  0  0  0
 34 35  1  0  0  0  0
 35 38  1  0  0  0  0
 35 37  1  0  0  0  0
 36 34  2  0  0  0  0
M  END
>  <minimizedAffinity>
-6.06779861

$$$$
