
 OpenBabel10152418373D

 38 41  0  0  1  0  0  0  0  0999 V2000
    1.7360   -6.1600  -28.7400 C   0  0  0  0  0  0  0  0  0  0  0  0
    1.4170   -4.8060  -28.6220 C   0  0  0  0  0  3  0  0  0  0  0  0
    0.6540   -4.3550  -27.5470 C   0  0  0  0  0  3  0  0  0  0  0  0
    0.2770   -5.2410  -26.5360 C   0  0  0  0  0  3  0  0  0  0  0  0
    0.6480   -6.5940  -26.5940 C   0  0  0  0  0  0  0  0  0  0  0  0
    1.3230   -7.0590  -27.7460 C   0  0  0  0  0  3  0  0  0  0  0  0
    3.8410   -7.1400  -29.6890 C   0  0  0  0  0  0  0  0  0  0  0  0
    4.7640   -6.8320  -30.4390 O   0  0  0  0  0  0  0  0  0  0  0  0
    2.6170   -6.5250  -29.7740 N   0  0  0  0  0  0  0  0  0  0  0  0
    2.4210   -6.1420  -30.6920 H   0  0  0  0  0  0  0  0  0  0  0  0
    4.6020  -10.5830  -27.2780 C   0  0  0  0  0  0  0  0  0  0  0  0
    4.4830   -9.3240  -26.6840 C   0  0  0  0  0  3  0  0  0  0  0  0
    4.1750   -8.2040  -27.4630 C   0  0  0  0  0  3  0  0  0  0  0  0
    3.9750   -8.3480  -28.8400 C   0  0  0  0  0  0  0  0  0  0  0  0
    4.1240   -9.6010  -29.4430 C   0  0  0  0  0  3  0  0  0  0  0  0
    4.4460  -10.7060  -28.6610 C   0  0  0  0  0  0  0  0  0  0  0  0
    4.6780  -11.8700  -29.2840 F   0  0  0  0  0  0  0  0  0  0  0  0
    3.8780  -12.0380  -25.6120 C   0  0  0  0  0  1  0  0  0  0  0  0
    4.9570  -11.6090  -26.4460 O   0  0  0  0  0  0  0  0  0  0  0  0
    0.4510   -7.5260  -25.3900 C   0  0  1  0  0  3  0  0  0  0  0  0
    1.7920   -7.7910  -24.7000 C   0  0  0  0  0  1  0  0  0  0  0  0
   -0.4860   -6.9750  -24.4120 N   0  0  0  0  0  0  0  0  0  0  0  0
   -0.6500   -5.9800  -24.4080 H   0  0  0  0  0  0  0  0  0  0  0  0
   -1.5140   -7.8360  -24.0220 C   0  0  0  0  0  0  0  0  0  0  0  0
   -2.5760   -7.2680  -23.4260 N   0  0  0  0  0  0  0  0  0  0  0  0
   -3.2710   -8.0410  -22.5990 C   0  0  0  0  0  3  0  0  0  0  0  0
   -2.9270   -9.2740  -22.2340 N   0  0  0  0  0  0  0  0  0  0  0  0
   -1.9090   -9.8570  -22.9000 C   0  0  0  0  0  0  0  0  0  0  0  0
   -1.3800  -11.0970  -22.5360 C   0  0  0  0  0  0  0  0  0  0  0  0
   -0.4620  -11.8090  -23.3270 C   0  0  0  0  0  3  0  0  0  0  0  0
    0.0240  -11.2330  -24.4870 C   0  0  0  0  0  3  0  0  0  0  0  0
   -0.3170   -9.9130  -24.7600 C   0  0  0  0  0  3  0  0  0  0  0  0
   -1.2530   -9.2110  -23.9460 C   0  0  0  0  0  0  0  0  0  0  0  0
   -1.5140  -11.5170  -21.1290 C   0  0  0  0  0  0  0  0  0  0  0  0
   -2.7510  -12.0340  -20.8330 N   0  0  0  0  0  0  0  0  0  0  0  0
   -0.6200  -11.4180  -20.3060 O   0  0  0  0  0  0  0  0  0  0  0  0
   -2.9080  -12.4050  -19.9060 H   0  0  0  0  0  0  0  0  0  0  0  0
   -3.4810  -12.1370  -21.5280 H   0  0  0  0  0  0  0  0  0  0  0  0
  1  2  2  0  0  0  0
  1  6  1  0  0  0  0
  2  3  1  0  0  0  0
  3  4  2  0  0  0  0
  5  4  1  0  0  0  0
  5 20  1  0  0  0  0
  6  5  2  0  0  0  0
  7 14  1  0  0  0  0
  8  7  2  0  0  0  0
  9  7  1  0  0  0  0
  9  1  1  0  0  0  0
 10  9  1  0  0  0  0
 11 12  1  0  0  0  0
 11 19  1  0  0  0  0
 13 12  2  0  0  0  0
 14 13  1  0  0  0  0
 15 14  2  0  0  0  0
 15 16  1  0  0  0  0
 16 11  2  0  0  0  0
 17 16  1  0  0  0  0
 19 18  1  0  0  0  0
 20 21  1  1  0  0  0
 20 22  1  0  0  0  0
 22 23  1  0  0  0  0
 22 24  1  0  0  0  0
 24 33  2  0  0  0  0
 24 25  1  0  0  0  0
 25 26  2  0  0  0  0
 26 27  1  0  0  0  0
 28 29  1  0  0  0  0
 28 27  2  0  0  0  0
 29 34  1  0  0  0  0
 30 29  2  0  0  0  0
 31 30  1  0  0  0  0
 32 31  2  0  0  0  0
 32 33  1  0  0  0  0
 33 28  1  0  0  0  0
 34 35  1  0  0  0  0
 34 36  2  0  0  0  0
 35 37  1  0  0  0  0
 38 35  1  0  0  0  0
M  END
>  <minimizedAffinity>
-7.51835537

$$$$

 OpenBabel10152418373D

 38 41  0  0  1  0  0  0  0  0999 V2000
   -1.7630   -8.9400  -22.9870 C   0  0  0  0  0  0  0  0  0  0  0  0
   -1.5440   -9.7600  -21.8790 C   0  0  0  0  0  3  0  0  0  0  0  0
   -1.2200  -11.1050  -22.0520 C   0  0  0  0  0  3  0  0  0  0  0  0
   -1.0280  -11.6180  -23.3360 C   0  0  0  0  0  3  0  0  0  0  0  0
   -1.1700  -10.7960  -24.4660 C   0  0  0  0  0  0  0  0  0  0  0  0
   -1.6090   -9.4650  -24.2790 C   0  0  0  0  0  3  0  0  0  0  0  0
   -1.1640   -6.5070  -23.1100 C   0  0  0  0  0  0  0  0  0  0  0  0
   -1.0080   -5.5410  -22.3680 O   0  0  0  0  0  0  0  0  0  0  0  0
   -1.9540   -7.5680  -22.7440 N   0  0  0  0  0  0  0  0  0  0  0  0
   -2.6700   -7.3240  -22.0680 H   0  0  0  0  0  0  0  0  0  0  0  0
    0.2680   -5.8980  -27.0880 C   0  0  0  0  0  0  0  0  0  0  0  0
    1.1580   -6.2480  -26.0690 C   0  0  0  0  0  3  0  0  0  0  0  0
    0.6840   -6.5060  -24.7790 C   0  0  0  0  0  3  0  0  0  0  0  0
   -0.6860   -6.4240  -24.5110 C   0  0  0  0  0  0  0  0  0  0  0  0
   -1.5760   -6.0450  -25.5220 C   0  0  0  0  0  3  0  0  0  0  0  0
   -1.0930   -5.7760  -26.7980 C   0  0  0  0  0  0  0  0  0  0  0  0
   -1.9590   -5.3200  -27.7150 F   0  0  0  0  0  0  0  0  0  0  0  0
    1.4850   -4.3450  -28.3220 C   0  0  0  0  0  1  0  0  0  0  0  0
    0.8290   -5.6140  -28.3030 O   0  0  0  0  0  0  0  0  0  0  0  0
   -0.7350  -11.2730  -25.8580 C   0  0  1  0  0  3  0  0  0  0  0  0
   -0.6300  -10.0840  -26.8170 C   0  0  0  0  0  1  0  0  0  0  0  0
    0.5480  -11.9740  -25.8260 N   0  0  0  0  0  0  0  0  0  0  0  0
    0.6500  -12.8190  -26.3660 H   0  0  0  0  0  0  0  0  0  0  0  0
    1.6640  -11.1620  -25.6140 C   0  0  0  0  0  0  0  0  0  0  0  0
    1.5900  -10.3010  -24.5850 N   0  0  0  0  0  0  0  0  0  0  0  0
    2.3370   -9.2060  -24.6770 C   0  0  0  0  0  3  0  0  0  0  0  0
    3.0450   -8.8520  -25.7470 N   0  0  0  0  0  0  0  0  0  0  0  0
    3.1740   -9.7610  -26.7350 C   0  0  0  0  0  0  0  0  0  0  0  0
    3.7920   -9.4700  -27.9530 C   0  0  0  0  0  0  0  0  0  0  0  0
    4.1120  -10.4480  -28.9110 C   0  0  0  0  0  3  0  0  0  0  0  0
    3.7280  -11.7590  -28.6970 C   0  0  0  0  0  3  0  0  0  0  0  0
    2.9230  -12.0390  -27.5990 C   0  0  0  0  0  3  0  0  0  0  0  0
    2.6120  -11.0330  -26.6390 C   0  0  0  0  0  0  0  0  0  0  0  0
    3.7970   -8.0670  -28.4050 C   0  0  0  0  0  0  0  0  0  0  0  0
    4.5770   -7.2490  -27.6260 N   0  0  0  0  0  0  0  0  0  0  0  0
    3.1720   -7.6670  -29.3740 O   0  0  0  0  0  0  0  0  0  0  0  0
    4.6870   -6.2830  -27.9030 H   0  0  0  0  0  0  0  0  0  0  0  0
    5.1130   -7.5930  -26.8380 H   0  0  0  0  0  0  0  0  0  0  0  0
  1  9  1  0  0  0  0
  1  2  1  0  0  0  0
  3  2  2  0  0  0  0
  4  3  1  0  0  0  0
  5  6  1  0  0  0  0
  5  4  2  0  0  0  0
  6  1  2  0  0  0  0
  7  9  1  0  0  0  0
  7  8  2  0  0  0  0
  9 10  1  0  0  0  0
 11 16  2  0  0  0  0
 11 12  1  0  0  0  0
 12 13  2  0  0  0  0
 13 14  1  0  0  0  0
 14  7  1  0  0  0  0
 15 14  2  0  0  0  0
 16 15  1  0  0  0  0
 17 16  1  0  0  0  0
 18 19  1  0  0  0  0
 19 11  1  0  0  0  0
 20 21  1  6  0  0  0
 20 22  1  0  0  0  0
 20  5  1  0  0  0  0
 22 24  1  0  0  0  0
 23 22  1  0  0  0  0
 24 25  1  0  0  0  0
 26 25  2  0  0  0  0
 27 26  1  0  0  0  0
 28 33  1  0  0  0  0
 28 27  2  0  0  0  0
 29 28  1  0  0  0  0
 30 31  1  0  0  0  0
 30 29  2  0  0  0  0
 31 32  2  0  0  0  0
 32 33  1  0  0  0  0
 33 24  2  0  0  0  0
 34 29  1  0  0  0  0
 34 35  1  0  0  0  0
 35 38  1  0  0  0  0
 36 34  2  0  0  0  0
 37 35  1  0  0  0  0
M  END
>  <minimizedAffinity>
-7.19995499

$$$$

 OpenBabel10152418373D

 38 41  0  0  1  0  0  0  0  0999 V2000
    1.2510   -6.0780  -27.9690 C   0  0  0  0  0  0  0  0  0  0  0  0
    0.8470   -4.9440  -27.2620 C   0  0  0  0  0  3  0  0  0  0  0  0
   -0.2910   -4.9860  -26.4580 C   0  0  0  0  0  3  0  0  0  0  0  0
   -0.9820   -6.1870  -26.2860 C   0  0  0  0  0  3  0  0  0  0  0  0
   -0.5520   -7.3600  -26.9280 C   0  0  0  0  0  0  0  0  0  0  0  0
    0.5340   -7.2750  -27.8290 C   0  0  0  0  0  3  0  0  0  0  0  0
    3.6760   -6.6000  -28.3480 C   0  0  0  0  0  0  0  0  0  0  0  0
    4.7420   -6.0200  -28.5300 O   0  0  0  0  0  0  0  0  0  0  0  0
    2.4780   -6.0040  -28.6540 N   0  0  0  0  0  0  0  0  0  0  0  0
    2.5530   -5.2910  -29.3710 H   0  0  0  0  0  0  0  0  0  0  0  0
    4.0750  -10.7160  -27.2810 C   0  0  0  0  0  0  0  0  0  0  0  0
    3.6300   -9.7880  -26.3360 C   0  0  0  0  0  3  0  0  0  0  0  0
    3.4410   -8.4510  -26.6990 C   0  0  0  0  0  3  0  0  0  0  0  0
    3.6890   -8.0440  -28.0140 C   0  0  0  0  0  0  0  0  0  0  0  0
    4.1630   -8.9650  -28.9540 C   0  0  0  0  0  3  0  0  0  0  0  0
    4.3620  -10.2900  -28.5800 C   0  0  0  0  0  0  0  0  0  0  0  0
    4.9110  -11.1210  -29.4780 F   0  0  0  0  0  0  0  0  0  0  0  0
    4.5610  -12.0300  -25.4220 C   0  0  0  0  0  1  0  0  0  0  0  0
    4.2800  -11.9890  -26.8220 O   0  0  0  0  0  0  0  0  0  0  0  0
   -1.1490   -8.7280  -26.5700 C   0  0  1  0  0  3  0  0  0  0  0  0
   -0.0880   -9.8230  -26.7150 C   0  0  0  0  0  1  0  0  0  0  0  0
   -1.6820   -8.7590  -25.2090 N   0  0  0  0  0  0  0  0  0  0  0  0
   -2.6810   -8.7340  -25.0810 H   0  0  0  0  0  0  0  0  0  0  0  0
   -0.8930   -9.4360  -24.2760 C   0  0  0  0  0  0  0  0  0  0  0  0
   -0.2640  -10.5400  -24.7140 N   0  0  0  0  0  0  0  0  0  0  0  0
    0.0240  -11.4580  -23.7970 C   0  0  0  0  0  3  0  0  0  0  0  0
   -0.3660  -11.4150  -22.5250 N   0  0  0  0  0  0  0  0  0  0  0  0
   -0.9220  -10.2690  -22.0840 C   0  0  0  0  0  0  0  0  0  0  0  0
   -1.4740  -10.1380  -20.8080 C   0  0  0  0  0  0  0  0  0  0  0  0
   -1.8760   -8.9080  -20.2600 C   0  0  0  0  0  3  0  0  0  0  0  0
   -1.8120   -7.7660  -21.0380 C   0  0  0  0  0  3  0  0  0  0  0  0
   -1.4740   -7.9000  -22.3790 C   0  0  0  0  0  3  0  0  0  0  0  0
   -1.0660   -9.1570  -22.9130 C   0  0  0  0  0  0  0  0  0  0  0  0
   -1.9730  -11.3580  -20.1460 C   0  0  0  0  0  0  0  0  0  0  0  0
   -1.0060  -12.0220  -19.4310 N   0  0  0  0  0  0  0  0  0  0  0  0
   -3.1270  -11.7440  -20.2210 O   0  0  0  0  0  0  0  0  0  0  0  0
   -1.2780  -12.8340  -18.8950 H   0  0  0  0  0  0  0  0  0  0  0  0
   -0.0550  -11.6820  -19.3520 H   0  0  0  0  0  0  0  0  0  0  0  0
  1  6  2  0  0  0  0
  1  2  1  0  0  0  0
  2  3  2  0  0  0  0
  3  4  1  0  0  0  0
  5 20  1  0  0  0  0
  5  4  2  0  0  0  0
  6  5  1  0  0  0  0
  7 14  1  0  0  0  0
  8  7  2  0  0  0  0
  9  7  1  0  0  0  0
  9  1  1  0  0  0  0
 10  9  1  0  0  0  0
 11 19  1  0  0  0  0
 11 12  1  0  0  0  0
 13 12  2  0  0  0  0
 14 13  1  0  0  0  0
 15 16  1  0  0  0  0
 15 14  2  0  0  0  0
 16 11  2  0  0  0  0
 17 16  1  0  0  0  0
 19 18  1  0  0  0  0
 20 21  1  1  0  0  0
 20 22  1  0  0  0  0
 22 23  1  0  0  0  0
 22 24  1  0  0  0  0
 24 33  1  0  0  0  0
 25 24  2  0  0  0  0
 25 26  1  0  0  0  0
 26 27  2  0  0  0  0
 27 28  1  0  0  0  0
 28 29  1  0  0  0  0
 29 30  2  0  0  0  0
 29 34  1  0  0  0  0
 31 30  1  0  0  0  0
 32 31  2  0  0  0  0
 33 32  1  0  0  0  0
 33 28  2  0  0  0  0
 34 35  1  0  0  0  0
 35 38  1  0  0  0  0
 35 37  1  0  0  0  0
 36 34  2  0  0  0  0
M  END
>  <minimizedAffinity>
-6.06779861

$$$$

 OpenBabel10152418373D

 38 41  0  0  1  0  0  0  0  0999 V2000
    3.4020   -7.9570  -28.0520 C   0  0  0  0  0  0  0  0  0  0  0  0
    4.6880   -8.0610  -27.5190 C   0  0  0  0  0  3  0  0  0  0  0  0
    4.9740   -9.0290  -26.5570 C   0  0  0  0  0  3  0  0  0  0  0  0
    3.9990   -9.9560  -26.1850 C   0  0  0  0  0  3  0  0  0  0  0  0
    2.7190   -9.9180  -26.7600 C   0  0  0  0  0  0  0  0  0  0  0  0
    2.4090   -8.8620  -27.6480 C   0  0  0  0  0  3  0  0  0  0  0  0
    2.0710   -6.4010  -29.5010 C   0  0  0  0  0  0  0  0  0  0  0  0
    1.8190   -6.2100  -30.6870 O   0  0  0  0  0  0  0  0  0  0  0  0
    3.2160   -7.0500  -29.1100 N   0  0  0  0  0  0  0  0  0  0  0  0
    3.9680   -6.9840  -29.7870 H   0  0  0  0  0  0  0  0  0  0  0  0
   -0.5360   -4.3520  -26.8090 C   0  0  0  0  0  0  0  0  0  0  0  0
   -0.6880   -5.7240  -27.0230 C   0  0  0  0  0  3  0  0  0  0  0  0
    0.2010   -6.4090  -27.8570 C   0  0  0  0  0  3  0  0  0  0  0  0
    1.2510   -5.7190  -28.4710 C   0  0  0  0  0  0  0  0  0  0  0  0
    1.3890   -4.3400  -28.2820 C   0  0  0  0  0  3  0  0  0  0  0  0
    0.4900   -3.6650  -27.4620 C   0  0  0  0  0  0  0  0  0  0  0  0
    0.5910   -2.3300  -27.3840 F   0  0  0  0  0  0  0  0  0  0  0  0
   -1.1260   -2.4280  -25.6390 C   0  0  0  0  0  1  0  0  0  0  0  0
   -1.4830   -3.7580  -26.0190 O   0  0  0  0  0  0  0  0  0  0  0  0
    1.7150  -11.0600  -26.5450 C   0  0  1  0  0  3  0  0  0  0  0  0
    2.2120  -12.0010  -25.4430 C   0  0  0  0  0  1  0  0  0  0  0  0
    0.3860  -10.5670  -26.1870 N   0  0  0  0  0  0  0  0  0  0  0  0
   -0.3830  -10.7590  -26.8080 H   0  0  0  0  0  0  0  0  0  0  0  0
    0.1430  -10.4540  -24.8160 C   0  0  0  0  0  0  0  0  0  0  0  0
   -0.3190  -11.5540  -24.1980 N   0  0  0  0  0  0  0  0  0  0  0  0
   -1.0400  -11.3540  -23.1000 C   0  0  0  0  0  3  0  0  0  0  0  0
   -1.4300  -10.1640  -22.6470 N   0  0  0  0  0  0  0  0  0  0  0  0
   -0.8920   -9.0730  -23.2290 C   0  0  0  0  0  0  0  0  0  0  0  0
   -1.3050   -7.7740  -22.9230 C   0  0  0  0  0  0  0  0  0  0  0  0
   -0.6280   -6.6230  -23.3650 C   0  0  0  0  0  3  0  0  0  0  0  0
    0.4510   -6.7570  -24.2180 C   0  0  0  0  0  3  0  0  0  0  0  0
    0.7490   -8.0210  -24.7120 C   0  0  0  0  0  3  0  0  0  0  0  0
    0.0520   -9.1750  -24.2480 C   0  0  0  0  0  0  0  0  0  0  0  0
   -2.6770   -7.5880  -22.4170 C   0  0  0  0  0  0  0  0  0  0  0  0
   -2.7470   -7.5360  -21.0470 N   0  0  0  0  0  0  0  0  0  0  0  0
   -3.6560   -7.4900  -23.1380 O   0  0  0  0  0  0  0  0  0  0  0  0
   -3.6430   -7.3470  -20.6180 H   0  0  0  0  0  0  0  0  0  0  0  0
   -1.9270   -7.5920  -20.4550 H   0  0  0  0  0  0  0  0  0  0  0  0
  1  6  2  0  0  0  0
  1  2  1  0  0  0  0
  2  3  2  0  0  0  0
  3  4  1  0  0  0  0
  5 20  1  0  0  0  0
  5  4  2  0  0  0  0
  6  5  1  0  0  0  0
  7  9  1  0  0  0  0
  7 14  1  0  0  0  0
  8  7  2  0  0  0  0
  9  1  1  0  0  0  0
 10  9  1  0  0  0  0
 11 19  1  0  0  0  0
 12 11  1  0  0  0  0
 13 12  2  0  0  0  0
 14 15  2  0  0  0  0
 14 13  1  0  0  0  0
 15 16  1  0  0  0  0
 16 17  1  0  0  0  0
 16 11  2  0  0  0  0
 19 18  1  0  0  0  0
 20 22  1  0  0  0  0
 20 21  1  1  0  0  0
 22 24  1  0  0  0  0
 23 22  1  0  0  0  0
 24 33  2  0  0  0  0
 24 25  1  0  0  0  0
 25 26  2  0  0  0  0
 26 27  1  0  0  0  0
 28 29  1  0  0  0  0
 28 27  2  0  0  0  0
 29 34  1  0  0  0  0
 30 29  2  0  0  0  0
 31 30  1  0  0  0  0
 32 33  1  0  0  0  0
 32 31  2  0  0  0  0
 33 28  1  0  0  0  0
 34 35  1  0  0  0  0
 35 37  1  0  0  0  0
 35 38  1  0  0  0  0
 36 34  2  0  0  0  0
M  END
>  <minimizedAffinity>
-5.58733988

$$$$

 OpenBabel10152418373D

 38 41  0  0  1  0  0  0  0  0999 V2000
    1.2340   -9.8720  -25.5870 C   0  0  0  0  0  0  0  0  0  0  0  0
    1.6380  -10.4160  -24.3670 C   0  0  0  0  0  3  0  0  0  0  0  0
    2.4860  -11.5210  -24.3360 C   0  0  0  0  0  3  0  0  0  0  0  0
    3.0050  -12.0380  -25.5250 C   0  0  0  0  0  3  0  0  0  0  0  0
    2.6720  -11.4630  -26.7620 C   0  0  0  0  0  0  0  0  0  0  0  0
    1.7220  -10.4160  -26.7840 C   0  0  0  0  0  3  0  0  0  0  0  0
   -0.7690   -8.4660  -25.0330 C   0  0  0  0  0  0  0  0  0  0  0  0
   -1.5580   -7.7020  -25.5810 O   0  0  0  0  0  0  0  0  0  0  0  0
    0.4870   -8.6800  -25.5440 N   0  0  0  0  0  0  0  0  0  0  0  0
    0.8310   -7.9110  -26.1080 H   0  0  0  0  0  0  0  0  0  0  0  0
   -2.0450   -9.9560  -21.2400 C   0  0  0  0  0  0  0  0  0  0  0  0
   -1.6820  -10.8450  -22.2550 C   0  0  0  0  0  3  0  0  0  0  0  0
   -1.2070  -10.3600  -23.4780 C   0  0  0  0  0  3  0  0  0  0  0  0
   -1.0860   -8.9810  -23.6800 C   0  0  0  0  0  0  0  0  0  0  0  0
   -1.4760   -8.0890  -22.6770 C   0  0  0  0  0  3  0  0  0  0  0  0
   -1.9620   -8.5810  -21.4690 C   0  0  0  0  0  0  0  0  0  0  0  0
   -2.4210   -7.6990  -20.5700 F   0  0  0  0  0  0  0  0  0  0  0  0
   -2.6310  -11.9450  -20.1820 C   0  0  0  0  0  1  0  0  0  0  0  0
   -2.5470  -10.5210  -20.0990 O   0  0  0  0  0  0  0  0  0  0  0  0
    3.4090  -11.8590  -28.0490 C   0  0  1  0  0  3  0  0  0  0  0  0
    2.6030  -11.4250  -29.2760 C   0  0  0  0  0  1  0  0  0  0  0  0
    4.7450  -11.2690  -28.1240 N   0  0  0  0  0  0  0  0  0  0  0  0
    5.4170  -11.6750  -28.7550 H   0  0  0  0  0  0  0  0  0  0  0  0
    4.8080   -9.9020  -27.8480 C   0  0  0  0  0  0  0  0  0  0  0  0
    4.9730   -9.5580  -26.5600 N   0  0  0  0  0  0  0  0  0  0  0  0
    4.5130   -8.3630  -26.2050 C   0  0  0  0  0  3  0  0  0  0  0  0
    3.8080   -7.5510  -26.9900 N   0  0  0  0  0  0  0  0  0  0  0  0
    3.7220   -7.8720  -28.2970 C   0  0  0  0  0  0  0  0  0  0  0  0
    2.9200   -7.1670  -29.1970 C   0  0  0  0  0  0  0  0  0  0  0  0
    2.9670   -7.3570  -30.5890 C   0  0  0  0  0  3  0  0  0  0  0  0
    3.7780   -8.3470  -31.1110 C   0  0  0  0  0  3  0  0  0  0  0  0
    4.4210   -9.2070  -30.2280 C   0  0  0  0  0  3  0  0  0  0  0  0
    4.3620   -8.9940  -28.8200 C   0  0  0  0  0  0  0  0  0  0  0  0
    1.7460   -6.4540  -28.6610 C   0  0  0  0  0  0  0  0  0  0  0  0
    1.7570   -5.1080  -28.9330 N   0  0  0  0  0  0  0  0  0  0  0  0
    0.8520   -6.9990  -28.0360 O   0  0  0  0  0  0  0  0  0  0  0  0
    0.9580   -4.5550  -28.6560 H   0  0  0  0  0  0  0  0  0  0  0  0
    2.4900   -4.6670  -29.4750 H   0  0  0  0  0  0  0  0  0  0  0  0
  1  9  1  0  0  0  0
  1  2  1  0  0  0  0
  2  3  2  0  0  0  0
  4  3  1  0  0  0  0
  5  4  2  0  0  0  0
  6  5  1  0  0  0  0
  6  1  2  0  0  0  0
  7 14  1  0  0  0  0
  8  7  2  0  0  0  0
  9  7  1  0  0  0  0
 10  9  1  0  0  0  0
 11 19  1  0  0  0  0
 12 11  2  0  0  0  0
 13 12  1  0  0  0  0
 14 13  2  0  0  0  0
 14 15  1  0  0  0  0
 15 16  2  0  0  0  0
 16 11  1  0  0  0  0
 16 17  1  0  0  0  0
 18 19  1  0  0  0  0
 20 21  1  6  0  0  0
 20  5  1  0  0  0  0
 22 20  1  0  0  0  0
 22 24  1  0  0  0  0
 23 22  1  0  0  0  0
 24 25  1  0  0  0  0
 25 26  2  0  0  0  0
 27 26  1  0  0  0  0
 28 27  2  0  0  0  0
 29 34  1  0  0  0  0
 29 28  1  0  0  0  0
 30 29  2  0  0  0  0
 31 30  1  0  0  0  0
 31 32  2  0  0  0  0
 32 33  1  0  0  0  0
 33 28  1  0  0  0  0
 33 24  2  0  0  0  0
 34 36  2  0  0  0  0
 35 34  1  0  0  0  0
 35 37  1  0  0  0  0
 38 35  1  0  0  0  0
M  END
>  <minimizedAffinity>
-5.13329744

$$$$

 OpenBabel10152418373D

 38 41  0  0  1  0  0  0  0  0999 V2000
    1.4730   -6.4690  -27.8180 C   0  0  0  0  0  0  0  0  0  0  0  0
    0.4790   -5.5510  -27.4710 C   0  0  0  0  0  3  0  0  0  0  0  0
   -0.7710   -5.9960  -27.0450 C   0  0  0  0  0  3  0  0  0  0  0  0
   -1.0090   -7.3620  -26.8800 C   0  0  0  0  0  3  0  0  0  0  0  0
   -0.0020   -8.3030  -27.1520 C   0  0  0  0  0  0  0  0  0  0  0  0
    1.2210   -7.8430  -27.6910 C   0  0  0  0  0  3  0  0  0  0  0  0
    3.9670   -6.5860  -28.0600 C   0  0  0  0  0  0  0  0  0  0  0  0
    4.9740   -5.9980  -27.6770 O   0  0  0  0  0  0  0  0  0  0  0  0
    2.7490   -5.9550  -28.1100 N   0  0  0  0  0  0  0  0  0  0  0  0
    2.8190   -4.9480  -28.2080 H   0  0  0  0  0  0  0  0  0  0  0  0
    3.9990  -10.4650  -29.8450 C   0  0  0  0  0  0  0  0  0  0  0  0
    3.8200   -9.3300  -30.6400 C   0  0  0  0  0  3  0  0  0  0  0  0
    3.8690   -8.0560  -30.0670 C   0  0  0  0  0  3  0  0  0  0  0  0
    4.1070   -7.9170  -28.6960 C   0  0  0  0  0  0  0  0  0  0  0  0
    4.2570   -9.0530  -27.8920 C   0  0  0  0  0  3  0  0  0  0  0  0
    4.1910  -10.3170  -28.4700 C   0  0  0  0  0  0  0  0  0  0  0  0
    4.2390  -11.3820  -27.6570 F   0  0  0  0  0  0  0  0  0  0  0  0
    3.0540  -11.5980  -31.6450 C   0  0  0  0  0  1  0  0  0  0  0  0
    3.8830  -11.6700  -30.4840 O   0  0  0  0  0  0  0  0  0  0  0  0
   -0.1620   -9.7770  -26.7560 C   0  0  1  0  0  3  0  0  0  0  0  0
    1.1640  -10.3290  -26.2240 C   0  0  0  0  0  1  0  0  0  0  0  0
   -1.1980   -9.9670  -25.7410 N   0  0  0  0  0  0  0  0  0  0  0  0
   -2.0730  -10.3820  -26.0170 H   0  0  0  0  0  0  0  0  0  0  0  0
   -0.7280  -10.1680  -24.4410 C   0  0  0  0  0  0  0  0  0  0  0  0
   -0.5730  -11.4440  -24.0520 N   0  0  0  0  0  0  0  0  0  0  0  0
   -0.6580  -11.6780  -22.7470 C   0  0  0  0  0  3  0  0  0  0  0  0
   -0.9990  -10.7740  -21.8300 N   0  0  0  0  0  0  0  0  0  0  0  0
   -1.0700   -9.4870  -22.2240 C   0  0  0  0  0  0  0  0  0  0  0  0
   -1.5270   -8.4650  -21.3880 C   0  0  0  0  0  0  0  0  0  0  0  0
   -1.4230   -7.1000  -21.7060 C   0  0  0  0  0  3  0  0  0  0  0  0
   -0.9270   -6.7280  -22.9420 C   0  0  0  0  0  3  0  0  0  0  0  0
   -0.6690   -7.7240  -23.8760 C   0  0  0  0  0  3  0  0  0  0  0  0
   -0.7780   -9.1020  -23.5310 C   0  0  0  0  0  0  0  0  0  0  0  0
   -2.4550   -8.8280  -20.3010 C   0  0  0  0  0  0  0  0  0  0  0  0
   -2.8430   -7.7540  -19.5380 N   0  0  0  0  0  0  0  0  0  0  0  0
   -2.8420   -9.9660  -20.0950 O   0  0  0  0  0  0  0  0  0  0  0  0
   -3.5290   -7.9040  -18.8110 H   0  0  0  0  0  0  0  0  0  0  0  0
   -2.5380   -6.8080  -19.7310 H   0  0  0  0  0  0  0  0  0  0  0  0
  1  6  2  0  0  0  0
  1  2  1  0  0  0  0
  2  3  2  0  0  0  0
  3  4  1  0  0  0  0
  5  4  2  0  0  0  0
  5 20  1  0  0  0  0
  6  5  1  0  0  0  0
  7  8  2  0  0  0  0
  9  7  1  0  0  0  0
  9  1  1  0  0  0  0
 10  9  1  0  0  0  0
 11 16  1  0  0  0  0
 12 13  1  0  0  0  0
 12 11  2  0  0  0  0
 13 14  2  0  0  0  0
 14  7  1  0  0  0  0
 14 15  1  0  0  0  0
 16 15  2  0  0  0  0
 16 17  1  0  0  0  0
 18 19  1  0  0  0  0
 19 11  1  0  0  0  0
 20 21  1  1  0  0  0
 20 22  1  0  0  0  0
 22 24  1  0  0  0  0
 23 22  1  0  0  0  0
 24 25  2  0  0  0  0
 24 33  1  0  0  0  0
 25 26  1  0  0  0  0
 26 27  2  0  0  0  0
 28 27  1  0  0  0  0
 28 29  1  0  0  0  0
 29 34  1  0  0  0  0
 30 29  2  0  0  0  0
 31 30  1  0  0  0  0
 32 33  1  0  0  0  0
 32 31  2  0  0  0  0
 33 28  2  0  0  0  0
 34 36  2  0  0  0  0
 34 35  1  0  0  0  0
 35 37  1  0  0  0  0
 38 35  1  0  0  0  0
M  END
>  <minimizedAffinity>
-4.75853443

$$$$
