
 OpenBabel10152418373D

 38 41  0  0  1  0  0  0  0  0999 V2000
    1.2340   -9.8720  -25.5870 C   0  0  0  0  0  0  0  0  0  0  0  0
    1.6380  -10.4160  -24.3670 C   0  0  0  0  0  3  0  0  0  0  0  0
    2.4860  -11.5210  -24.3360 C   0  0  0  0  0  3  0  0  0  0  0  0
    3.0050  -12.0380  -25.5250 C   0  0  0  0  0  3  0  0  0  0  0  0
    2.6720  -11.4630  -26.7620 C   0  0  0  0  0  0  0  0  0  0  0  0
    1.7220  -10.4160  -26.7840 C   0  0  0  0  0  3  0  0  0  0  0  0
   -0.7690   -8.4660  -25.0330 C   0  0  0  0  0  0  0  0  0  0  0  0
   -1.5580   -7.7020  -25.5810 O   0  0  0  0  0  0  0  0  0  0  0  0
    0.4870   -8.6800  -25.5440 N   0  0  0  0  0  0  0  0  0  0  0  0
    0.8310   -7.9110  -26.1080 H   0  0  0  0  0  0  0  0  0  0  0  0
   -2.0450   -9.9560  -21.2400 C   0  0  0  0  0  0  0  0  0  0  0  0
   -1.6820  -10.8450  -22.2550 C   0  0  0  0  0  3  0  0  0  0  0  0
   -1.2070  -10.3600  -23.4780 C   0  0  0  0  0  3  0  0  0  0  0  0
   -1.0860   -8.9810  -23.6800 C   0  0  0  0  0  0  0  0  0  0  0  0
   -1.4760   -8.0890  -22.6770 C   0  0  0  0  0  3  0  0  0  0  0  0
   -1.9620   -8.5810  -21.4690 C   0  0  0  0  0  0  0  0  0  0  0  0
   -2.4210   -7.6990  -20.5700 F   0  0  0  0  0  0  0  0  0  0  0  0
   -2.6310  -11.9450  -20.1820 C   0  0  0  0  0  1  0  0  0  0  0  0
   -2.5470  -10.5210  -20.0990 O   0  0  0  0  0  0  0  0  0  0  0  0
    3.4090  -11.8590  -28.0490 C   0  0  1  0  0  3  0  0  0  0  0  0
    2.6030  -11.4250  -29.2760 C   0  0  0  0  0  1  0  0  0  0  0  0
    4.7450  -11.2690  -28.1240 N   0  0  0  0  0  0  0  0  0  0  0  0
    5.4170  -11.6750  -28.7550 H   0  0  0  0  0  0  0  0  0  0  0  0
    4.8080   -9.9020  -27.8480 C   0  0  0  0  0  0  0  0  0  0  0  0
    4.9730   -9.5580  -26.5600 N   0  0  0  0  0  0  0  0  0  0  0  0
    4.5130   -8.3630  -26.2050 C   0  0  0  0  0  3  0  0  0  0  0  0
    3.8080   -7.5510  -26.9900 N   0  0  0  0  0  0  0  0  0  0  0  0
    3.7220   -7.8720  -28.2970 C   0  0  0  0  0  0  0  0  0  0  0  0
    2.9200   -7.1670  -29.1970 C   0  0  0  0  0  0  0  0  0  0  0  0
    2.9670   -7.3570  -30.5890 C   0  0  0  0  0  3  0  0  0  0  0  0
    3.7780   -8.3470  -31.1110 C   0  0  0  0  0  3  0  0  0  0  0  0
    4.4210   -9.2070  -30.2280 C   0  0  0  0  0  3  0  0  0  0  0  0
    4.3620   -8.9940  -28.8200 C   0  0  0  0  0  0  0  0  0  0  0  0
    1.7460   -6.4540  -28.6610 C   0  0  0  0  0  0  0  0  0  0  0  0
    1.7570   -5.1080  -28.9330 N   0  0  0  0  0  0  0  0  0  0  0  0
    0.8520   -6.9990  -28.0360 O   0  0  0  0  0  0  0  0  0  0  0  0
    0.9580   -4.5550  -28.6560 H   0  0  0  0  0  0  0  0  0  0  0  0
    2.4900   -4.6670  -29.4750 H   0  0  0  0  0  0  0  0  0  0  0  0
  1  9  1  0  0  0  0
  1  2  1  0  0  0  0
  2  3  2  0  0  0  0
  4  3  1  0  0  0  0
  5  4  2  0  0  0  0
  6  5  1  0  0  0  0
  6  1  2  0  0  0  0
  7 14  1  0  0  0  0
  8  7  2  0  0  0  0
  9  7  1  0  0  0  0
 10  9  1  0  0  0  0
 11 19  1  0  0  0  0
 12 11  2  0  0  0  0
 13 12  1  0  0  0  0
 14 13  2  0  0  0  0
 14 15  1  0  0  0  0
 15 16  2  0  0  0  0
 16 11  1  0  0  0  0
 16 17  1  0  0  0  0
 18 19  1  0  0  0  0
 20 21  1  6  0  0  0
 20  5  1  0  0  0  0
 22 20  1  0  0  0  0
 22 24  1  0  0  0  0
 23 22  1  0  0  0  0
 24 25  1  0  0  0  0
 25 26  2  0  0  0  0
 27 26  1  0  0  0  0
 28 27  2  0  0  0  0
 29 34  1  0  0  0  0
 29 28  1  0  0  0  0
 30 29  2  0  0  0  0
 31 30  1  0  0  0  0
 31 32  2  0  0  0  0
 32 33  1  0  0  0  0
 33 28  1  0  0  0  0
 33 24  2  0  0  0  0
 34 36  2  0  0  0  0
 35 34  1  0  0  0  0
 35 37  1  0  0  0  0
 38 35  1  0  0  0  0
M  END
>  <minimizedAffinity>
-5.13329744

$$$$
