
 OpenBabel10152419003D

 39 42  0  0  1  0  0  0  0  0999 V2000
    9.6350  -11.7440   13.0270 C   0  0  0  0  0  0  0  0  0  0  0  0
   10.7730  -10.9240   13.0540 C   0  0  0  0  0  3  0  0  0  0  0  0
   10.6670   -9.5730   13.3760 C   0  0  0  0  0  3  0  0  0  0  0  0
    9.4210   -9.0190   13.6650 C   0  0  0  0  0  3  0  0  0  0  0  0
    8.2710   -9.8100   13.6320 C   0  0  0  0  0  0  0  0  0  0  0  0
    8.3920  -11.1780   13.3610 C   0  0  0  0  0  3  0  0  0  0  0  0
    6.9870   -9.3160   13.9210 N   0  0  0  0  0  0  0  0  0  0  0  0
    5.7730   -9.5670   13.3250 C   0  0  0  0  0  0  0  0  0  0  0  0
    4.8910   -8.7130   13.4090 O   0  0  0  0  0  0  0  0  0  0  0  0
    6.9220   -8.6070   14.6400 H   0  0  0  0  0  0  0  0  0  0  0  0
    5.5210  -10.8400   12.6990 C   0  0  0  0  0  0  0  0  0  0  0  0
    5.5270  -12.1370   13.1720 C   0  0  0  0  0  3  0  0  0  0  0  0
    5.1750  -12.9570   12.0690 C   0  0  0  0  0  0  0  0  0  0  0  0
    4.9480  -12.2100   10.9790 N   0  0  0  0  0  0  0  0  0  0  0  0
    5.0970  -10.9460   11.4050 N   0  0  0  0  0  0  0  0  0  0  0  0
    4.9170  -10.1850   10.7550 H   0  0  0  0  0  0  0  0  0  0  0  0
    5.0850  -14.4740   12.0080 C   0  0  0  0  0  0  0  0  0  0  0  0
    6.3230  -15.0800   11.3130 C   0  0  0  0  0  1  0  0  0  0  0  0
    4.9940  -15.0390   13.4400 C   0  0  0  0  0  1  0  0  0  0  0  0
    3.8390  -14.9330   11.2230 C   0  0  0  0  0  1  0  0  0  0  0  0
    8.7270  -14.0410   13.3810 C   0  0  0  0  0  1  0  0  0  0  0  0
    9.7790  -13.2080   12.6410 C   0  0  1  0  0  3  0  0  0  0  0  0
    9.6540  -13.4540   11.2080 N   0  0  0  0  0  0  0  0  0  0  0  0
    9.7750  -14.4220   10.9260 H   0  0  0  0  0  0  0  0  0  0  0  0
    8.8280  -12.8390   10.3000 C   0  0  0  0  0  0  0  0  0  0  0  0
    7.9170  -13.7080    9.8320 N   0  0  0  0  0  0  0  0  0  0  0  0
    6.9750  -13.2210    9.0310 C   0  0  0  0  0  3  0  0  0  0  0  0
    6.8460  -11.9450    8.6600 N   0  0  0  0  0  0  0  0  0  0  0  0
    7.7790  -11.0650    9.0840 C   0  0  0  0  0  0  0  0  0  0  0  0
    7.7220   -9.7030    8.7190 C   0  0  0  0  0  0  0  0  0  0  0  0
    8.7190   -8.7940    9.1190 C   0  0  0  0  0  3  0  0  0  0  0  0
    9.7990   -9.2240    9.8690 C   0  0  0  0  0  3  0  0  0  0  0  0
    9.8660  -10.5600   10.2450 C   0  0  0  0  0  3  0  0  0  0  0  0
    8.8490  -11.4870    9.9030 C   0  0  0  0  0  0  0  0  0  0  0  0
    6.6190   -9.1150    7.8930 C   0  0  0  0  0  0  0  0  0  0  0  0
    5.3810   -8.9950    8.4490 N   0  0  0  0  0  0  0  0  0  0  0  0
    6.8100   -8.7430    6.7400 O   0  0  0  0  0  0  0  0  0  0  0  0
    4.6310   -8.5990    7.9000 H   0  0  0  0  0  0  0  0  0  0  0  0
    5.2090   -9.2900    9.4060 H   0  0  0  0  0  0  0  0  0  0  0  0
  1  2  2  0  0  0  0
  1  6  1  0  0  0  0
  2  3  1  0  0  0  0
  3  4  2  0  0  0  0
  5  4  1  0  0  0  0
  5  7  1  0  0  0  0
  6  5  2  0  0  0  0
  7 10  1  0  0  0  0
  8  9  2  0  0  0  0
  8  7  1  0  0  0  0
 11 12  2  0  0  0  0
 11  8  1  0  0  0  0
 13 12  1  0  0  0  0
 14 15  1  0  0  0  0
 14 13  2  0  0  0  0
 15 11  1  0  0  0  0
 16 15  1  0  0  0  0
 17 13  1  0  0  0  0
 17 19  1  0  0  0  0
 18 17  1  0  0  0  0
 20 17  1  0  0  0  0
 22  1  1  0  0  0  0
 22 21  1  1  0  0  0
 23 22  1  0  0  0  0
 24 23  1  0  0  0  0
 25 23  1  0  0  0  0
 26 25  2  0  0  0  0
 27 26  1  0  0  0  0
 28 27  2  0  0  0  0
 28 29  1  0  0  0  0
 29 34  1  0  0  0  0
 30 29  2  0  0  0  0
 30 31  1  0  0  0  0
 31 32  2  0  0  0  0
 32 33  1  0  0  0  0
 34 33  2  0  0  0  0
 34 25  1  0  0  0  0
 35 36  1  0  0  0  0
 35 30  1  0  0  0  0
 36 39  1  0  0  0  0
 37 35  2  0  0  0  0
 38 36  1  0  0  0  0
M  END
>  <minimizedAffinity>
5.85297871

$$$$
