
 OpenBabel10152418343D

 34 37  0  0  1  0  0  0  0  0999 V2000
   -1.7420   -6.8790  -25.7100 C   0  0  0  0  0  1  0  0  0  0  0  0
   -0.2470   -6.7690  -25.3750 C   0  0  2  0  0  3  0  0  0  0  0  0
    0.4680   -6.1230  -26.5610 C   0  0  0  0  0  0  0  0  0  0  0  0
    0.1930   -4.7790  -26.8620 C   0  0  0  0  0  3  0  0  0  0  0  0
    0.8000   -4.1510  -27.9500 C   0  0  0  0  0  3  0  0  0  0  0  0
    1.7550   -4.8290  -28.7080 C   0  0  0  0  0  3  0  0  0  0  0  0
    2.1270   -6.1170  -28.3630 C   0  0  0  0  0  0  0  0  0  0  0  0
    1.3890   -6.7930  -27.3810 C   0  0  0  0  0  3  0  0  0  0  0  0
    3.1840   -6.8220  -28.9420 N   0  0  0  0  0  0  0  0  0  0  0  0
    3.9830   -7.8530  -28.5820 C   0  0  0  0  0  0  0  0  0  0  0  0
    4.9120   -8.0760  -29.3780 O   0  0  0  0  0  0  0  0  0  0  0  0
    3.3960   -6.5690  -29.9020 H   0  0  0  0  0  0  0  0  0  0  0  0
    3.8580   -8.7540  -27.3480 C   0  0  0  0  0  3  0  0  0  0  0  0
    2.6460   -9.6280  -27.0560 C   0  0  0  0  0  2  0  0  0  0  0  0
    3.1700  -10.6640  -26.0690 C   0  0  0  0  0  2  0  0  0  0  0  0
    4.5600  -11.0020  -26.5670 C   0  0  0  0  0  2  0  0  0  0  0  0
    4.9740   -9.8260  -27.4480 C   0  0  0  0  0  2  0  0  0  0  0  0
    0.2130   -8.0880  -24.9400 N   0  0  0  0  0  0  0  0  0  0  0  0
    1.1940   -8.1310  -24.6770 H   0  0  0  0  0  0  0  0  0  0  0  0
   -0.4490   -9.0840  -24.2740 C   0  0  0  0  0  0  0  0  0  0  0  0
   -0.3390  -10.2470  -24.9370 N   0  0  0  0  0  0  0  0  0  0  0  0
   -0.7130  -11.3450  -24.2880 C   0  0  0  0  0  3  0  0  0  0  0  0
   -1.1550  -11.3920  -23.0300 N   0  0  0  0  0  0  0  0  0  0  0  0
   -1.3400  -10.2220  -22.3780 C   0  0  0  0  0  0  0  0  0  0  0  0
   -1.8010  -10.1770  -21.0470 C   0  0  0  0  0  0  0  0  0  0  0  0
   -2.0660   -8.9540  -20.4050 C   0  0  0  0  0  3  0  0  0  0  0  0
   -1.8710   -7.7540  -21.0690 C   0  0  0  0  0  3  0  0  0  0  0  0
   -1.3630   -7.7760  -22.3600 C   0  0  0  0  0  3  0  0  0  0  0  0
   -1.0560   -8.9960  -23.0120 C   0  0  0  0  0  0  0  0  0  0  0  0
   -2.0060  -11.4030  -20.2080 C   0  0  0  0  0  0  0  0  0  0  0  0
   -0.9070  -12.0390  -19.7090 N   0  0  0  0  0  0  0  0  0  0  0  0
   -3.1260  -11.8190  -19.9480 O   0  0  0  0  0  0  0  0  0  0  0  0
   -1.0330  -12.8440  -19.1130 H   0  0  0  0  0  0  0  0  0  0  0  0
    0.0300  -11.7110  -19.9230 H   0  0  0  0  0  0  0  0  0  0  0  0
  2  1  1  6  0  0  0
  2 18  1  0  0  0  0
  3  2  1  0  0  0  0
  4  3  1  0  0  0  0
  5  4  2  0  0  0  0
  6  7  2  0  0  0  0
  6  5  1  0  0  0  0
  7  8  1  0  0  0  0
  8  3  2  0  0  0  0
  9 10  1  0  0  0  0
  9  7  1  0  0  0  0
 10 13  1  0  0  0  0
 11 10  2  0  0  0  0
 12  9  1  0  0  0  0
 13 14  1  0  0  0  0
 14 15  1  0  0  0  0
 16 15  1  0  0  0  0
 17 13  1  0  0  0  0
 17 16  1  0  0  0  0
 18 19  1  0  0  0  0
 18 20  1  0  0  0  0
 20 29  1  0  0  0  0
 21 22  1  0  0  0  0
 21 20  2  0  0  0  0
 22 23  2  0  0  0  0
 23 24  1  0  0  0  0
 24 25  1  0  0  0  0
 25 26  2  0  0  0  0
 25 30  1  0  0  0  0
 27 26  1  0  0  0  0
 28 27  2  0  0  0  0
 29 24  2  0  0  0  0
 29 28  1  0  0  0  0
 30 32  2  0  0  0  0
 30 31  1  0  0  0  0
 31 33  1  0  0  0  0
 34 31  1  0  0  0  0
M  END
>  <minimizedAffinity>
-9.35803795

$$$$

 OpenBabel10152418343D

 34 37  0  0  1  0  0  0  0  0999 V2000
    4.5330  -10.0390  -26.4220 C   0  0  0  0  0  1  0  0  0  0  0  0
    3.9960  -10.6470  -27.7260 C   0  0  2  0  0  3  0  0  0  0  0  0
    3.8830   -9.5370  -28.7680 C   0  0  0  0  0  0  0  0  0  0  0  0
    4.1360   -9.8490  -30.1150 C   0  0  0  0  0  3  0  0  0  0  0  0
    4.0720   -8.8650  -31.1010 C   0  0  0  0  0  3  0  0  0  0  0  0
    3.6750   -7.5680  -30.7740 C   0  0  0  0  0  3  0  0  0  0  0  0
    3.3120   -7.2620  -29.4740 C   0  0  0  0  0  0  0  0  0  0  0  0
    3.5450   -8.2090  -28.4660 C   0  0  0  0  0  3  0  0  0  0  0  0
    2.7420   -6.0520  -29.0710 N   0  0  0  0  0  0  0  0  0  0  0  0
    1.7380   -5.6730  -28.2470 C   0  0  0  0  0  0  0  0  0  0  0  0
    1.4780   -4.4580  -28.2910 O   0  0  0  0  0  0  0  0  0  0  0  0
    3.2120   -5.2200  -29.4110 H   0  0  0  0  0  0  0  0  0  0  0  0
    0.9260   -6.5500  -27.2870 C   0  0  0  0  0  3  0  0  0  0  0  0
    1.3430   -6.8480  -25.8530 C   0  0  0  0  0  2  0  0  0  0  0  0
    0.0510   -7.2930  -25.1800 C   0  0  0  0  0  2  0  0  0  0  0  0
   -1.0150   -6.3810  -25.7510 C   0  0  0  0  0  2  0  0  0  0  0  0
   -0.4330   -5.8400  -27.0540 C   0  0  0  0  0  2  0  0  0  0  0  0
    2.7840  -11.4010  -27.4020 N   0  0  0  0  0  0  0  0  0  0  0  0
    2.6330  -12.2290  -27.9720 H   0  0  0  0  0  0  0  0  0  0  0  0
    2.1470  -11.5880  -26.2040 C   0  0  0  0  0  0  0  0  0  0  0  0
    3.0090  -12.0390  -25.2780 N   0  0  0  0  0  0  0  0  0  0  0  0
    2.5950  -12.0260  -24.0160 C   0  0  0  0  0  3  0  0  0  0  0  0
    1.4130  -11.5750  -23.5900 N   0  0  0  0  0  0  0  0  0  0  0  0
    0.5100  -11.1880  -24.5180 C   0  0  0  0  0  0  0  0  0  0  0  0
   -0.7610  -10.6970  -24.1590 C   0  0  0  0  0  0  0  0  0  0  0  0
   -1.7220  -10.3720  -25.1340 C   0  0  0  0  0  3  0  0  0  0  0  0
   -1.4380  -10.5220  -26.4810 C   0  0  0  0  0  3  0  0  0  0  0  0
   -0.1720  -10.9500  -26.8560 C   0  0  0  0  0  3  0  0  0  0  0  0
    0.8220  -11.2480  -25.8920 C   0  0  0  0  0  0  0  0  0  0  0  0
   -1.1730  -10.4460  -22.7400 C   0  0  0  0  0  0  0  0  0  0  0  0
   -1.5680  -11.5090  -21.9810 N   0  0  0  0  0  0  0  0  0  0  0  0
   -1.1370   -9.3250  -22.2520 O   0  0  0  0  0  0  0  0  0  0  0  0
   -1.8140  -11.3590  -21.0140 H   0  0  0  0  0  0  0  0  0  0  0  0
   -1.6120  -12.4440  -22.3740 H   0  0  0  0  0  0  0  0  0  0  0  0
  2 18  1  0  0  0  0
  2  1  1  1  0  0  0
  3  8  1  0  0  0  0
  3  2  1  0  0  0  0
  4  3  2  0  0  0  0
  5  6  2  0  0  0  0
  5  4  1  0  0  0  0
  6  7  1  0  0  0  0
  7  9  1  0  0  0  0
  7  8  2  0  0  0  0
  9 10  1  0  0  0  0
 10 13  1  0  0  0  0
 11 10  2  0  0  0  0
 12  9  1  0  0  0  0
 13 17  1  0  0  0  0
 13 14  1  0  0  0  0
 14 15  1  0  0  0  0
 16 15  1  0  0  0  0
 17 16  1  0  0  0  0
 18 20  1  0  0  0  0
 19 18  1  0  0  0  0
 20 29  2  0  0  0  0
 20 21  1  0  0  0  0
 21 22  2  0  0  0  0
 22 23  1  0  0  0  0
 24 25  1  0  0  0  0
 24 23  2  0  0  0  0
 25 30  1  0  0  0  0
 26 25  2  0  0  0  0
 27 26  1  0  0  0  0
 28 27  2  0  0  0  0
 28 29  1  0  0  0  0
 29 24  1  0  0  0  0
 30 32  2  0  0  0  0
 30 31  1  0  0  0  0
 31 33  1  0  0  0  0
 34 31  1  0  0  0  0
M  END
>  <minimizedAffinity>
-8.7676506

$$$$

 OpenBabel10152418343D

 34 37  0  0  1  0  0  0  0  0999 V2000
    4.0980  -12.0390  -25.9510 C   0  0  0  0  0  1  0  0  0  0  0  0
    3.2310  -10.7750  -25.8450 C   0  0  2  0  0  3  0  0  0  0  0  0
    1.7760  -11.2010  -25.6580 C   0  0  0  0  0  0  0  0  0  0  0  0
    1.0600  -11.6630  -26.7750 C   0  0  0  0  0  3  0  0  0  0  0  0
   -0.2780  -12.0390  -26.6620 C   0  0  0  0  0  3  0  0  0  0  0  0
   -0.9040  -12.0390  -25.4150 C   0  0  0  0  0  3  0  0  0  0  0  0
   -0.1880  -11.6960  -24.2810 C   0  0  0  0  0  0  0  0  0  0  0  0
    1.0980  -11.1570  -24.4310 C   0  0  0  0  0  3  0  0  0  0  0  0
   -0.6620  -11.8230  -22.9730 N   0  0  0  0  0  0  0  0  0  0  0  0
   -0.9870  -10.9800  -21.9670 C   0  0  0  0  0  0  0  0  0  0  0  0
   -1.2470  -11.5490  -20.8930 O   0  0  0  0  0  0  0  0  0  0  0  0
   -0.8940  -12.7700  -22.6900 H   0  0  0  0  0  0  0  0  0  0  0  0
   -1.0820   -9.4500  -22.0140 C   0  0  0  0  0  3  0  0  0  0  0  0
   -2.0390   -8.6870  -22.9200 C   0  0  0  0  0  2  0  0  0  0  0  0
   -2.1340   -7.3100  -22.2760 C   0  0  0  0  0  2  0  0  0  0  0  0
   -2.1570   -7.5810  -20.7870 C   0  0  0  0  0  2  0  0  0  0  0  0
   -1.5620   -8.9760  -20.6180 C   0  0  0  0  0  2  0  0  0  0  0  0
    3.5460   -9.9190  -26.9890 N   0  0  0  0  0  0  0  0  0  0  0  0
    3.7020  -10.4150  -27.8620 H   0  0  0  0  0  0  0  0  0  0  0  0
    3.1290   -8.6500  -27.2910 C   0  0  0  0  0  0  0  0  0  0  0  0
    3.5150   -8.3090  -28.5310 N   0  0  0  0  0  0  0  0  0  0  0  0
    2.9700   -7.2140  -29.0500 C   0  0  0  0  0  3  0  0  0  0  0  0
    2.0530   -6.4470  -28.4580 N   0  0  0  0  0  0  0  0  0  0  0  0
    1.7120   -6.7360  -27.1820 C   0  0  0  0  0  0  0  0  0  0  0  0
    0.7510   -5.9820  -26.4800 C   0  0  0  0  0  0  0  0  0  0  0  0
    0.4610   -6.2410  -25.1280 C   0  0  0  0  0  3  0  0  0  0  0  0
    1.1130   -7.2590  -24.4510 C   0  0  0  0  0  3  0  0  0  0  0  0
    2.0210   -8.0500  -25.1410 C   0  0  0  0  0  3  0  0  0  0  0  0
    2.3000   -7.8280  -26.5120 C   0  0  0  0  0  0  0  0  0  0  0  0
   -0.0550   -4.8870  -27.1130 C   0  0  0  0  0  0  0  0  0  0  0  0
    0.5900   -3.9770  -27.8980 N   0  0  0  0  0  0  0  0  0  0  0  0
   -1.2670   -4.8140  -26.9590 O   0  0  0  0  0  0  0  0  0  0  0  0
    0.0540   -3.2560  -28.3580 H   0  0  0  0  0  0  0  0  0  0  0  0
    1.5960   -4.0180  -28.0290 H   0  0  0  0  0  0  0  0  0  0  0  0
  2  1  1  6  0  0  0
  2  3  1  0  0  0  0
  3  8  1  0  0  0  0
  4  5  1  0  0  0  0
  4  3  2  0  0  0  0
  5  6  2  0  0  0  0
  6  7  1  0  0  0  0
  7  9  1  0  0  0  0
  8  7  2  0  0  0  0
  9 12  1  0  0  0  0
  9 10  1  0  0  0  0
 10 11  2  0  0  0  0
 13 10  1  0  0  0  0
 13 17  1  0  0  0  0
 14 15  1  0  0  0  0
 14 13  1  0  0  0  0
 15 16  1  0  0  0  0
 16 17  1  0  0  0  0
 18  2  1  0  0  0  0
 19 18  1  0  0  0  0
 20 18  1  0  0  0  0
 20 29  1  0  0  0  0
 21 20  2  0  0  0  0
 22 21  1  0  0  0  0
 22 23  2  0  0  0  0
 23 24  1  0  0  0  0
 24 29  2  0  0  0  0
 24 25  1  0  0  0  0
 25 26  2  0  0  0  0
 26 27  1  0  0  0  0
 28 27  2  0  0  0  0
 29 28  1  0  0  0  0
 30 32  2  0  0  0  0
 30 25  1  0  0  0  0
 31 30  1  0  0  0  0
 33 31  1  0  0  0  0
 34 31  1  0  0  0  0
M  END
>  <minimizedAffinity>
-8.58861732

$$$$

 OpenBabel10152418343D

 34 37  0  0  1  0  0  0  0  0999 V2000
    4.8400  -10.8560  -26.5070 C   0  0  0  0  0  1  0  0  0  0  0  0
    3.4390  -10.3510  -26.8860 C   0  0  2  0  0  3  0  0  0  0  0  0
    3.5840   -9.2990  -27.9830 C   0  0  0  0  0  0  0  0  0  0  0  0
    3.8470   -9.7260  -29.2960 C   0  0  0  0  0  3  0  0  0  0  0  0
    4.0140   -8.8030  -30.3280 C   0  0  0  0  0  3  0  0  0  0  0  0
    3.8400   -7.4400  -30.0860 C   0  0  0  0  0  3  0  0  0  0  0  0
    3.4700   -7.0020  -28.8260 C   0  0  0  0  0  0  0  0  0  0  0  0
    3.4750   -7.9170  -27.7640 C   0  0  0  0  0  3  0  0  0  0  0  0
    3.1070   -5.6900  -28.5160 N   0  0  0  0  0  0  0  0  0  0  0  0
    1.9490   -5.0230  -28.2970 C   0  0  0  0  0  0  0  0  0  0  0  0
    2.0870   -3.7940  -28.1800 O   0  0  0  0  0  0  0  0  0  0  0  0
    3.8810   -5.0590  -28.3380 H   0  0  0  0  0  0  0  0  0  0  0  0
    0.5370   -5.6070  -28.1680 C   0  0  0  0  0  3  0  0  0  0  0  0
    0.2440   -7.0120  -27.6590 C   0  0  0  0  0  2  0  0  0  0  0  0
   -1.2200   -6.9520  -27.2400 C   0  0  0  0  0  2  0  0  0  0  0  0
   -1.3800   -5.5920  -26.5930 C   0  0  0  0  0  2  0  0  0  0  0  0
   -0.2180   -4.7520  -27.1170 C   0  0  0  0  0  2  0  0  0  0  0  0
    2.7560   -9.9580  -25.6530 N   0  0  0  0  0  0  0  0  0  0  0  0
    3.2400   -9.2510  -25.1060 H   0  0  0  0  0  0  0  0  0  0  0  0
    1.4200   -9.8790  -25.3630 C   0  0  0  0  0  0  0  0  0  0  0  0
    0.8180  -11.0580  -25.5950 N   0  0  0  0  0  0  0  0  0  0  0  0
   -0.4160  -11.2030  -25.1240 C   0  0  0  0  0  3  0  0  0  0  0  0
   -1.0910  -10.2940  -24.4170 N   0  0  0  0  0  0  0  0  0  0  0  0
   -0.5250   -9.0790  -24.2420 C   0  0  0  0  0  0  0  0  0  0  0  0
   -1.1640   -8.0600  -23.5080 C   0  0  0  0  0  0  0  0  0  0  0  0
   -0.6030   -6.7740  -23.3990 C   0  0  0  0  0  3  0  0  0  0  0  0
    0.6040   -6.4790  -24.0090 C   0  0  0  0  0  3  0  0  0  0  0  0
    1.2770   -7.4850  -24.6880 C   0  0  0  0  0  3  0  0  0  0  0  0
    0.7470   -8.7960  -24.7790 C   0  0  0  0  0  0  0  0  0  0  0  0
   -2.4490   -8.2670  -22.7640 C   0  0  0  0  0  0  0  0  0  0  0  0
   -2.4640   -9.1580  -21.7300 N   0  0  0  0  0  0  0  0  0  0  0  0
   -3.4610   -7.6420  -23.0490 O   0  0  0  0  0  0  0  0  0  0  0  0
   -3.3140   -9.2800  -21.1990 H   0  0  0  0  0  0  0  0  0  0  0  0
   -1.6360   -9.6910  -21.4870 H   0  0  0  0  0  0  0  0  0  0  0  0
  2  1  1  1  0  0  0
  2 18  1  0  0  0  0
  3  8  1  0  0  0  0
  3  2  1  0  0  0  0
  4  3  2  0  0  0  0
  5  6  2  0  0  0  0
  5  4  1  0  0  0  0
  6  7  1  0  0  0  0
  7  9  1  0  0  0  0
  7  8  2  0  0  0  0
  9 12  1  0  0  0  0
  9 10  1  0  0  0  0
 10 11  2  0  0  0  0
 10 13  1  0  0  0  0
 13 14  1  0  0  0  0
 13 17  1  0  0  0  0
 14 15  1  0  0  0  0
 15 16  1  0  0  0  0
 17 16  1  0  0  0  0
 18 20  1  0  0  0  0
 18 19  1  0  0  0  0
 20 29  1  0  0  0  0
 21 20  2  0  0  0  0
 21 22  1  0  0  0  0
 22 23  2  0  0  0  0
 23 24  1  0  0  0  0
 24 25  1  0  0  0  0
 25 26  2  0  0  0  0
 25 30  1  0  0  0  0
 27 26  1  0  0  0  0
 28 27  2  0  0  0  0
 29 28  1  0  0  0  0
 29 24  2  0  0  0  0
 30 31  1  0  0  0  0
 31 34  1  0  0  0  0
 31 33  1  0  0  0  0
 32 30  2  0  0  0  0
M  END
>  <minimizedAffinity>
-8.57419872

$$$$

 OpenBabel10152418343D

 34 37  0  0  1  0  0  0  0  0999 V2000
   -1.3970   -4.1230  -26.6670 C   0  0  0  0  0  1  0  0  0  0  0  0
   -0.4710   -5.1810  -26.0480 C   0  0  2  0  0  3  0  0  0  0  0  0
    0.5550   -5.6010  -27.0980 C   0  0  0  0  0  0  0  0  0  0  0  0
    0.4990   -5.0060  -28.3700 C   0  0  0  0  0  3  0  0  0  0  0  0
    1.3970   -5.3750  -29.3710 C   0  0  0  0  0  3  0  0  0  0  0  0
    2.4200   -6.2830  -29.0980 C   0  0  0  0  0  3  0  0  0  0  0  0
    2.5650   -6.7990  -27.8220 C   0  0  0  0  0  0  0  0  0  0  0  0
    1.5590   -6.5560  -26.8760 C   0  0  0  0  0  3  0  0  0  0  0  0
    3.6440   -7.5770  -27.3970 N   0  0  0  0  0  0  0  0  0  0  0  0
    3.8050   -8.7940  -26.8270 C   0  0  0  0  0  0  0  0  0  0  0  0
    4.9740   -9.0430  -26.4860 O   0  0  0  0  0  0  0  0  0  0  0  0
    4.5600   -7.1970  -27.6110 H   0  0  0  0  0  0  0  0  0  0  0  0
    2.7380   -9.8670  -26.5800 C   0  0  0  0  0  3  0  0  0  0  0  0
    2.9360  -11.3460  -26.8830 C   0  0  0  0  0  2  0  0  0  0  0  0
    1.8740  -12.0380  -26.0390 C   0  0  0  0  0  2  0  0  0  0  0  0
    1.8570  -11.2710  -24.7340 C   0  0  0  0  0  2  0  0  0  0  0  0
    2.4800   -9.9140  -25.0510 C   0  0  0  0  0  2  0  0  0  0  0  0
   -1.3130   -6.2260  -25.4640 N   0  0  0  0  0  0  0  0  0  0  0  0
   -1.8360   -6.7770  -26.1390 H   0  0  0  0  0  0  0  0  0  0  0  0
   -1.1330   -6.9900  -24.3420 C   0  0  0  0  0  0  0  0  0  0  0  0
   -1.0240   -6.2090  -23.2540 N   0  0  0  0  0  0  0  0  0  0  0  0
   -1.0970   -6.8130  -22.0730 C   0  0  0  0  0  3  0  0  0  0  0  0
   -1.3010   -8.1180  -21.8780 N   0  0  0  0  0  0  0  0  0  0  0  0
   -1.3380   -8.9230  -22.9630 C   0  0  0  0  0  0  0  0  0  0  0  0
   -1.5510  -10.3120  -22.8510 C   0  0  0  0  0  0  0  0  0  0  0  0
   -1.5080  -11.1520  -23.9790 C   0  0  0  0  0  3  0  0  0  0  0  0
   -1.2620  -10.6290  -25.2380 C   0  0  0  0  0  3  0  0  0  0  0  0
   -1.1060   -9.2570  -25.3760 C   0  0  0  0  0  3  0  0  0  0  0  0
   -1.1810   -8.3900  -24.2580 C   0  0  0  0  0  0  0  0  0  0  0  0
   -1.8740  -10.9910  -21.5540 C   0  0  0  0  0  0  0  0  0  0  0  0
   -1.0930  -12.0370  -21.1580 N   0  0  0  0  0  0  0  0  0  0  0  0
   -2.7950  -10.6100  -20.8450 O   0  0  0  0  0  0  0  0  0  0  0  0
   -1.2790  -12.4800  -20.2700 H   0  0  0  0  0  0  0  0  0  0  0  0
   -0.3310  -12.3710  -21.7390 H   0  0  0  0  0  0  0  0  0  0  0  0
  2  1  1  6  0  0  0
  2 18  1  0  0  0  0
  3  8  1  0  0  0  0
  3  2  1  0  0  0  0
  4  3  2  0  0  0  0
  5  6  2  0  0  0  0
  5  4  1  0  0  0  0
  6  7  1  0  0  0  0
  7  9  1  0  0  0  0
  7  8  2  0  0  0  0
  9 10  1  0  0  0  0
 10 13  1  0  0  0  0
 10 11  2  0  0  0  0
 12  9  1  0  0  0  0
 13 17  1  0  0  0  0
 14 13  1  0  0  0  0
 14 15  1  0  0  0  0
 15 16  1  0  0  0  0
 17 16  1  0  0  0  0
 18 20  1  0  0  0  0
 19 18  1  0  0  0  0
 20 29  2  0  0  0  0
 20 21  1  0  0  0  0
 21 22  2  0  0  0  0
 22 23  1  0  0  0  0
 24 25  1  0  0  0  0
 24 23  2  0  0  0  0
 25 30  1  0  0  0  0
 26 25  2  0  0  0  0
 27 26  1  0  0  0  0
 28 27  2  0  0  0  0
 28 29  1  0  0  0  0
 29 24  1  0  0  0  0
 30 31  1  0  0  0  0
 30 32  2  0  0  0  0
 31 33  1  0  0  0  0
 34 31  1  0  0  0  0
M  END
>  <minimizedAffinity>
-8.53486156

$$$$

 OpenBabel10152418343D

 34 37  0  0  1  0  0  0  0  0999 V2000
    2.4620   -8.1230  -24.9370 C   0  0  0  0  0  1  0  0  0  0  0  0
    2.5720   -9.2120  -26.0150 C   0  0  2  0  0  3  0  0  0  0  0  0
    2.9580   -8.5480  -27.3350 C   0  0  0  0  0  0  0  0  0  0  0  0
    3.6490   -9.3080  -28.2950 C   0  0  0  0  0  3  0  0  0  0  0  0
    4.0470   -8.7410  -29.5050 C   0  0  0  0  0  3  0  0  0  0  0  0
    3.6910   -7.4290  -29.8160 C   0  0  0  0  0  3  0  0  0  0  0  0
    2.9140   -6.6950  -28.9360 C   0  0  0  0  0  0  0  0  0  0  0  0
    2.6690   -7.2130  -27.6560 C   0  0  0  0  0  3  0  0  0  0  0  0
    2.3630   -5.4430  -29.2170 N   0  0  0  0  0  0  0  0  0  0  0  0
    1.4360   -4.6360  -28.6500 C   0  0  0  0  0  0  0  0  0  0  0  0
    1.1500   -3.6370  -29.3320 O   0  0  0  0  0  0  0  0  0  0  0  0
    2.7820   -4.9530  -30.0000 H   0  0  0  0  0  0  0  0  0  0  0  0
    0.7380   -4.8090  -27.2960 C   0  0  0  0  0  3  0  0  0  0  0  0
   -0.1480   -3.7480  -26.6570 C   0  0  0  0  0  2  0  0  0  0  0  0
   -0.9790   -4.5260  -25.6450 C   0  0  0  0  0  2  0  0  0  0  0  0
   -1.3110   -5.8300  -26.3390 C   0  0  0  0  0  2  0  0  0  0  0  0
   -0.2690   -5.9790  -27.4450 C   0  0  0  0  0  2  0  0  0  0  0  0
    1.3380   -9.9980  -25.9850 N   0  0  0  0  0  0  0  0  0  0  0  0
    1.2340  -10.6550  -26.7530 H   0  0  0  0  0  0  0  0  0  0  0  0
    0.6070  -10.4640  -24.9250 C   0  0  0  0  0  0  0  0  0  0  0  0
    1.1430  -11.5990  -24.4470 N   0  0  0  0  0  0  0  0  0  0  0  0
    0.6930  -12.0270  -23.2720 C   0  0  0  0  0  3  0  0  0  0  0  0
   -0.2170  -11.4090  -22.5160 N   0  0  0  0  0  0  0  0  0  0  0  0
   -0.8170  -10.3070  -23.0200 C   0  0  0  0  0  0  0  0  0  0  0  0
   -1.7870   -9.5900  -22.2920 C   0  0  0  0  0  0  0  0  0  0  0  0
   -2.4630   -8.4920  -22.8560 C   0  0  0  0  0  3  0  0  0  0  0  0
   -2.1820   -8.0810  -24.1480 C   0  0  0  0  0  3  0  0  0  0  0  0
   -1.1890   -8.7380  -24.8610 C   0  0  0  0  0  3  0  0  0  0  0  0
   -0.4720   -9.8230  -24.2980 C   0  0  0  0  0  0  0  0  0  0  0  0
   -2.1460   -9.9060  -20.8710 C   0  0  0  0  0  0  0  0  0  0  0  0
   -2.4260  -11.2020  -20.5450 N   0  0  0  0  0  0  0  0  0  0  0  0
   -2.1670   -9.0390  -20.0080 O   0  0  0  0  0  0  0  0  0  0  0  0
   -2.6350  -11.4330  -19.5840 H   0  0  0  0  0  0  0  0  0  0  0  0
   -2.4230  -11.9310  -21.2500 H   0  0  0  0  0  0  0  0  0  0  0  0
  2 18  1  0  0  0  0
  2  1  1  1  0  0  0
  3  2  1  0  0  0  0
  4  3  2  0  0  0  0
  5  4  1  0  0  0  0
  6  5  2  0  0  0  0
  6  7  1  0  0  0  0
  7  8  2  0  0  0  0
  8  3  1  0  0  0  0
  9  7  1  0  0  0  0
  9 10  1  0  0  0  0
 10 13  1  0  0  0  0
 11 10  2  0  0  0  0
 12  9  1  0  0  0  0
 13 14  1  0  0  0  0
 14 15  1  0  0  0  0
 16 15  1  0  0  0  0
 17 13  1  0  0  0  0
 17 16  1  0  0  0  0
 18 20  1  0  0  0  0
 19 18  1  0  0  0  0
 20 21  2  0  0  0  0
 20 29  1  0  0  0  0
 21 22  1  0  0  0  0
 22 23  2  0  0  0  0
 24 23  1  0  0  0  0
 24 25  1  0  0  0  0
 25 30  1  0  0  0  0
 26 25  2  0  0  0  0
 27 26  1  0  0  0  0
 28 29  1  0  0  0  0
 28 27  2  0  0  0  0
 29 24  2  0  0  0  0
 30 31  1  0  0  0  0
 30 32  2  0  0  0  0
 31 33  1  0  0  0  0
 34 31  1  0  0  0  0
M  END
>  <minimizedAffinity>
-7.77378607

$$$$

 OpenBabel10152418343D

 34 37  0  0  1  0  0  0  0  0999 V2000
    1.9750   -8.2070  -23.9460 C   0  0  0  0  0  1  0  0  0  0  0  0
    0.7620   -9.1330  -23.7700 C   0  0  2  0  0  3  0  0  0  0  0  0
    0.7720  -10.1640  -24.8970 C   0  0  0  0  0  0  0  0  0  0  0  0
   -0.4550  -10.5820  -25.4390 C   0  0  0  0  0  3  0  0  0  0  0  0
   -0.5010  -11.5400  -26.4510 C   0  0  0  0  0  3  0  0  0  0  0  0
    0.6810  -12.0390  -26.9990 C   0  0  0  0  0  3  0  0  0  0  0  0
    1.9040  -11.5610  -26.5610 C   0  0  0  0  0  0  0  0  0  0  0  0
    1.9390  -10.7310  -25.4300 C   0  0  0  0  0  3  0  0  0  0  0  0
    3.1330  -11.8620  -27.1510 N   0  0  0  0  0  0  0  0  0  0  0  0
    4.0690  -11.1860  -27.8570 C   0  0  0  0  0  0  0  0  0  0  0  0
    4.9740  -11.9030  -28.3150 O   0  0  0  0  0  0  0  0  0  0  0  0
    3.4790  -12.7990  -26.9720 H   0  0  0  0  0  0  0  0  0  0  0  0
    4.1350   -9.6780  -28.1300 C   0  0  0  0  0  3  0  0  0  0  0  0
    2.9110   -8.8080  -28.3820 C   0  0  0  0  0  2  0  0  0  0  0  0
    3.4020   -7.3940  -28.0960 C   0  0  0  0  0  2  0  0  0  0  0  0
    4.3050   -7.5360  -26.8890 C   0  0  0  0  0  2  0  0  0  0  0  0
    4.7130   -9.0070  -26.8570 C   0  0  0  0  0  2  0  0  0  0  0  0
   -0.4270   -8.2920  -23.6290 N   0  0  0  0  0  0  0  0  0  0  0  0
   -0.9320   -8.4120  -22.7560 H   0  0  0  0  0  0  0  0  0  0  0  0
   -0.6830   -7.0310  -24.0980 C   0  0  0  0  0  0  0  0  0  0  0  0
   -0.9880   -6.2050  -23.0830 N   0  0  0  0  0  0  0  0  0  0  0  0
   -1.0140   -4.9040  -23.3560 C   0  0  0  0  0  3  0  0  0  0  0  0
   -0.7310   -4.3520  -24.5370 N   0  0  0  0  0  0  0  0  0  0  0  0
   -0.4960   -5.1760  -25.5830 C   0  0  0  0  0  0  0  0  0  0  0  0
   -0.1870   -4.6800  -26.8650 C   0  0  0  0  0  0  0  0  0  0  0  0
   -0.0230   -5.5440  -27.9640 C   0  0  0  0  0  3  0  0  0  0  0  0
   -0.1530   -6.9130  -27.8080 C   0  0  0  0  0  3  0  0  0  0  0  0
   -0.4000   -7.4250  -26.5420 C   0  0  0  0  0  3  0  0  0  0  0  0
   -0.5330   -6.5750  -25.4160 C   0  0  0  0  0  0  0  0  0  0  0  0
    0.0250   -3.2240  -27.1530 C   0  0  0  0  0  0  0  0  0  0  0  0
   -0.8040   -2.3170  -26.5590 N   0  0  0  0  0  0  0  0  0  0  0  0
    0.9320   -2.8410  -27.8800 O   0  0  0  0  0  0  0  0  0  0  0  0
   -0.6480   -1.3320  -26.7170 H   0  0  0  0  0  0  0  0  0  0  0  0
   -1.5660   -2.6190  -25.9610 H   0  0  0  0  0  0  0  0  0  0  0  0
  2  1  1  6  0  0  0
  2 18  1  0  0  0  0
  3  2  1  0  0  0  0
  4  3  2  0  0  0  0
  5  4  1  0  0  0  0
  6  7  1  0  0  0  0
  6  5  2  0  0  0  0
  7  8  2  0  0  0  0
  8  3  1  0  0  0  0
  9 12  1  0  0  0  0
  9  7  1  0  0  0  0
 10  9  1  0  0  0  0
 11 10  2  0  0  0  0
 13 10  1  0  0  0  0
 13 17  1  0  0  0  0
 14 13  1  0  0  0  0
 14 15  1  0  0  0  0
 15 16  1  0  0  0  0
 16 17  1  0  0  0  0
 18 19  1  0  0  0  0
 20 18  1  0  0  0  0
 20 21  1  0  0  0  0
 22 21  2  0  0  0  0
 23 22  1  0  0  0  0
 24 29  1  0  0  0  0
 24 23  2  0  0  0  0
 25 24  1  0  0  0  0
 26 27  1  0  0  0  0
 26 25  2  0  0  0  0
 27 28  2  0  0  0  0
 28 29  1  0  0  0  0
 29 20  2  0  0  0  0
 30 25  1  0  0  0  0
 30 31  1  0  0  0  0
 31 34  1  0  0  0  0
 32 30  2  0  0  0  0
 33 31  1  0  0  0  0
M  END
>  <minimizedAffinity>
-7.46233988

$$$$

 OpenBabel10152418343D

 34 37  0  0  1  0  0  0  0  0999 V2000
   -0.2250   -4.7060  -24.7790 C   0  0  0  0  0  1  0  0  0  0  0  0
   -0.0800   -6.2360  -24.7920 C   0  0  2  0  0  3  0  0  0  0  0  0
    0.7230   -6.6350  -26.0280 C   0  0  0  0  0  0  0  0  0  0  0  0
    0.4870   -5.9530  -27.2340 C   0  0  0  0  0  3  0  0  0  0  0  0
    1.1750   -6.2970  -28.3970 C   0  0  0  0  0  3  0  0  0  0  0  0
    2.1710   -7.2730  -28.3600 C   0  0  0  0  0  3  0  0  0  0  0  0
    2.5020   -7.8810  -27.1610 C   0  0  0  0  0  0  0  0  0  0  0  0
    1.6890   -7.6520  -26.0410 C   0  0  0  0  0  3  0  0  0  0  0  0
    3.5880   -8.7400  -26.9780 N   0  0  0  0  0  0  0  0  0  0  0  0
    3.7780   -9.9760  -26.4620 C   0  0  0  0  0  0  0  0  0  0  0  0
    4.9710  -10.3120  -26.3770 O   0  0  0  0  0  0  0  0  0  0  0  0
    4.4630   -8.4180  -27.3780 H   0  0  0  0  0  0  0  0  0  0  0  0
    2.7120  -10.9790  -26.0030 C   0  0  0  0  0  3  0  0  0  0  0  0
    1.6760  -10.6810  -24.9270 C   0  0  0  0  0  2  0  0  0  0  0  0
    0.5840  -11.7140  -25.1740 C   0  0  0  0  0  2  0  0  0  0  0  0
    0.4730  -11.8050  -26.6820 C   0  0  0  0  0  2  0  0  0  0  0  0
    1.7940  -11.2630  -27.2200 C   0  0  0  0  0  2  0  0  0  0  0  0
   -1.4150   -6.8130  -24.6340 N   0  0  0  0  0  0  0  0  0  0  0  0
   -2.0720   -6.5740  -25.3710 H   0  0  0  0  0  0  0  0  0  0  0  0
   -1.8090   -8.0040  -24.0830 C   0  0  0  0  0  0  0  0  0  0  0  0
   -1.9040   -8.9510  -25.0310 N   0  0  0  0  0  0  0  0  0  0  0  0
   -2.0300  -10.2070  -24.6130 C   0  0  0  0  0  3  0  0  0  0  0  0
   -2.0360  -10.6050  -23.3400 N   0  0  0  0  0  0  0  0  0  0  0  0
   -2.0160   -9.6560  -22.3780 C   0  0  0  0  0  0  0  0  0  0  0  0
   -2.0180   -9.9860  -21.0080 C   0  0  0  0  0  0  0  0  0  0  0  0
   -2.0770   -8.9900  -20.0150 C   0  0  0  0  0  3  0  0  0  0  0  0
   -2.1260   -7.6510  -20.3640 C   0  0  0  0  0  3  0  0  0  0  0  0
   -2.0680   -7.3030  -21.7060 C   0  0  0  0  0  3  0  0  0  0  0  0
   -1.9720   -8.2890  -22.7190 C   0  0  0  0  0  0  0  0  0  0  0  0
   -1.9200  -11.3940  -20.5020 C   0  0  0  0  0  0  0  0  0  0  0  0
   -0.7210  -12.0380  -20.6050 N   0  0  0  0  0  0  0  0  0  0  0  0
   -2.8750  -11.9560  -19.9840 O   0  0  0  0  0  0  0  0  0  0  0  0
   -0.6330  -12.9740  -20.2360 H   0  0  0  0  0  0  0  0  0  0  0  0
    0.0790  -11.5900  -21.0400 H   0  0  0  0  0  0  0  0  0  0  0  0
  2  1  1  6  0  0  0
  2 18  1  0  0  0  0
  3  2  1  0  0  0  0
  4  3  2  0  0  0  0
  5  6  2  0  0  0  0
  5  4  1  0  0  0  0
  6  7  1  0  0  0  0
  7  9  1  0  0  0  0
  7  8  2  0  0  0  0
  8  3  1  0  0  0  0
  9 10  1  0  0  0  0
 10 11  2  0  0  0  0
 10 13  1  0  0  0  0
 12  9  1  0  0  0  0
 13 14  1  0  0  0  0
 15 14  1  0  0  0  0
 16 15  1  0  0  0  0
 17 16  1  0  0  0  0
 17 13  1  0  0  0  0
 18 20  1  0  0  0  0
 19 18  1  0  0  0  0
 20 29  1  0  0  0  0
 21 22  1  0  0  0  0
 21 20  2  0  0  0  0
 22 23  2  0  0  0  0
 23 24  1  0  0  0  0
 24 25  1  0  0  0  0
 25 30  1  0  0  0  0
 25 26  2  0  0  0  0
 27 26  1  0  0  0  0
 28 27  2  0  0  0  0
 29 24  2  0  0  0  0
 29 28  1  0  0  0  0
 30 32  2  0  0  0  0
 31 30  1  0  0  0  0
 31 33  1  0  0  0  0
 34 31  1  0  0  0  0
M  END
>  <minimizedAffinity>
-7.03006458

$$$$

 OpenBabel10152418343D

 34 37  0  0  1  0  0  0  0  0999 V2000
   -3.5770   -8.3150  -22.6900 C   0  0  0  0  0  1  0  0  0  0  0  0
   -2.1810   -8.6910  -23.2090 C   0  0  2  0  0  3  0  0  0  0  0  0
   -1.4980   -7.4240  -23.7210 C   0  0  0  0  0  0  0  0  0  0  0  0
   -0.9160   -6.5490  -22.7880 C   0  0  0  0  0  3  0  0  0  0  0  0
   -0.3030   -5.3670  -23.2020 C   0  0  0  0  0  3  0  0  0  0  0  0
   -0.1880   -5.0750  -24.5610 C   0  0  0  0  0  3  0  0  0  0  0  0
   -0.6530   -5.9740  -25.5050 C   0  0  0  0  0  0  0  0  0  0  0  0
   -1.4170   -7.0690  -25.0760 C   0  0  0  0  0  3  0  0  0  0  0  0
   -0.4400   -5.8640  -26.8810 N   0  0  0  0  0  0  0  0  0  0  0  0
    0.6040   -6.0430  -27.7240 C   0  0  0  0  0  0  0  0  0  0  0  0
    0.3740   -5.6930  -28.8940 O   0  0  0  0  0  0  0  0  0  0  0  0
   -1.2690   -5.6650  -27.4310 H   0  0  0  0  0  0  0  0  0  0  0  0
    1.9850   -6.6240  -27.4010 C   0  0  0  0  0  3  0  0  0  0  0  0
    2.2030   -7.8730  -26.5580 C   0  0  0  0  0  2  0  0  0  0  0  0
    3.6090   -8.3270  -26.9310 C   0  0  0  0  0  2  0  0  0  0  0  0
    3.7080   -8.0890  -28.4230 C   0  0  0  0  0  2  0  0  0  0  0  0
    2.6220   -7.0650  -28.7450 C   0  0  0  0  0  2  0  0  0  0  0  0
   -2.3360   -9.8050  -24.1460 N   0  0  0  0  0  0  0  0  0  0  0  0
   -3.2560   -9.8780  -24.5710 H   0  0  0  0  0  0  0  0  0  0  0  0
   -1.4300  -10.3880  -24.9910 C   0  0  0  0  0  0  0  0  0  0  0  0
   -1.7790  -10.1800  -26.2710 N   0  0  0  0  0  0  0  0  0  0  0  0
   -0.8680  -10.4680  -27.1950 C   0  0  0  0  0  3  0  0  0  0  0  0
    0.3670  -10.9130  -26.9560 N   0  0  0  0  0  0  0  0  0  0  0  0
    0.7040  -11.1970  -25.6780 C   0  0  0  0  0  0  0  0  0  0  0  0
    1.9860  -11.6690  -25.3350 C   0  0  0  0  0  0  0  0  0  0  0  0
    2.3010  -12.0370  -24.0130 C   0  0  0  0  0  3  0  0  0  0  0  0
    1.3530  -11.9360  -23.0100 C   0  0  0  0  0  3  0  0  0  0  0  0
    0.1020  -11.4190  -23.3170 C   0  0  0  0  0  3  0  0  0  0  0  0
   -0.2240  -11.0090  -24.6340 C   0  0  0  0  0  0  0  0  0  0  0  0
    3.1110  -11.7800  -26.3190 C   0  0  0  0  0  0  0  0  0  0  0  0
    2.8070  -12.0060  -27.6300 N   0  0  0  0  0  0  0  0  0  0  0  0
    4.2780  -11.6480  -25.9760 O   0  0  0  0  0  0  0  0  0  0  0  0
    3.5530  -12.0470  -28.3090 H   0  0  0  0  0  0  0  0  0  0  0  0
    1.8450  -12.1270  -27.9310 H   0  0  0  0  0  0  0  0  0  0  0  0
  2  1  1  6  0  0  0
  3  2  1  0  0  0  0
  3  4  1  0  0  0  0
  5  4  2  0  0  0  0
  6  5  1  0  0  0  0
  7  8  1  0  0  0  0
  7  6  2  0  0  0  0
  8  3  2  0  0  0  0
  9  7  1  0  0  0  0
 10 13  1  0  0  0  0
 10  9  1  0  0  0  0
 11 10  2  0  0  0  0
 12  9  1  0  0  0  0
 13 14  1  0  0  0  0
 15 14  1  0  0  0  0
 16 15  1  0  0  0  0
 17 16  1  0  0  0  0
 17 13  1  0  0  0  0
 18  2  1  0  0  0  0
 19 18  1  0  0  0  0
 20 29  1  0  0  0  0
 20 18  1  0  0  0  0
 21 20  2  0  0  0  0
 22 23  2  0  0  0  0
 22 21  1  0  0  0  0
 23 24  1  0  0  0  0
 24 25  2  0  0  0  0
 24 29  1  0  0  0  0
 25 26  1  0  0  0  0
 26 27  2  0  0  0  0
 28 27  1  0  0  0  0
 29 28  2  0  0  0  0
 30 32  2  0  0  0  0
 30 25  1  0  0  0  0
 31 30  1  0  0  0  0
 33 31  1  0  0  0  0
 34 31  1  0  0  0  0
M  END
>  <minimizedAffinity>
-6.93345213

$$$$
