
 OpenBabel10152418343D

 34 37  0  0  1  0  0  0  0  0999 V2000
    4.0980  -12.0390  -25.9510 C   0  0  0  0  0  1  0  0  0  0  0  0
    3.2310  -10.7750  -25.8450 C   0  0  2  0  0  3  0  0  0  0  0  0
    1.7760  -11.2010  -25.6580 C   0  0  0  0  0  0  0  0  0  0  0  0
    1.0600  -11.6630  -26.7750 C   0  0  0  0  0  3  0  0  0  0  0  0
   -0.2780  -12.0390  -26.6620 C   0  0  0  0  0  3  0  0  0  0  0  0
   -0.9040  -12.0390  -25.4150 C   0  0  0  0  0  3  0  0  0  0  0  0
   -0.1880  -11.6960  -24.2810 C   0  0  0  0  0  0  0  0  0  0  0  0
    1.0980  -11.1570  -24.4310 C   0  0  0  0  0  3  0  0  0  0  0  0
   -0.6620  -11.8230  -22.9730 N   0  0  0  0  0  0  0  0  0  0  0  0
   -0.9870  -10.9800  -21.9670 C   0  0  0  0  0  0  0  0  0  0  0  0
   -1.2470  -11.5490  -20.8930 O   0  0  0  0  0  0  0  0  0  0  0  0
   -0.8940  -12.7700  -22.6900 H   0  0  0  0  0  0  0  0  0  0  0  0
   -1.0820   -9.4500  -22.0140 C   0  0  0  0  0  3  0  0  0  0  0  0
   -2.0390   -8.6870  -22.9200 C   0  0  0  0  0  2  0  0  0  0  0  0
   -2.1340   -7.3100  -22.2760 C   0  0  0  0  0  2  0  0  0  0  0  0
   -2.1570   -7.5810  -20.7870 C   0  0  0  0  0  2  0  0  0  0  0  0
   -1.5620   -8.9760  -20.6180 C   0  0  0  0  0  2  0  0  0  0  0  0
    3.5460   -9.9190  -26.9890 N   0  0  0  0  0  0  0  0  0  0  0  0
    3.7020  -10.4150  -27.8620 H   0  0  0  0  0  0  0  0  0  0  0  0
    3.1290   -8.6500  -27.2910 C   0  0  0  0  0  0  0  0  0  0  0  0
    3.5150   -8.3090  -28.5310 N   0  0  0  0  0  0  0  0  0  0  0  0
    2.9700   -7.2140  -29.0500 C   0  0  0  0  0  3  0  0  0  0  0  0
    2.0530   -6.4470  -28.4580 N   0  0  0  0  0  0  0  0  0  0  0  0
    1.7120   -6.7360  -27.1820 C   0  0  0  0  0  0  0  0  0  0  0  0
    0.7510   -5.9820  -26.4800 C   0  0  0  0  0  0  0  0  0  0  0  0
    0.4610   -6.2410  -25.1280 C   0  0  0  0  0  3  0  0  0  0  0  0
    1.1130   -7.2590  -24.4510 C   0  0  0  0  0  3  0  0  0  0  0  0
    2.0210   -8.0500  -25.1410 C   0  0  0  0  0  3  0  0  0  0  0  0
    2.3000   -7.8280  -26.5120 C   0  0  0  0  0  0  0  0  0  0  0  0
   -0.0550   -4.8870  -27.1130 C   0  0  0  0  0  0  0  0  0  0  0  0
    0.5900   -3.9770  -27.8980 N   0  0  0  0  0  0  0  0  0  0  0  0
   -1.2670   -4.8140  -26.9590 O   0  0  0  0  0  0  0  0  0  0  0  0
    0.0540   -3.2560  -28.3580 H   0  0  0  0  0  0  0  0  0  0  0  0
    1.5960   -4.0180  -28.0290 H   0  0  0  0  0  0  0  0  0  0  0  0
  2  1  1  6  0  0  0
  2  3  1  0  0  0  0
  3  8  1  0  0  0  0
  4  5  1  0  0  0  0
  4  3  2  0  0  0  0
  5  6  2  0  0  0  0
  6  7  1  0  0  0  0
  7  9  1  0  0  0  0
  8  7  2  0  0  0  0
  9 12  1  0  0  0  0
  9 10  1  0  0  0  0
 10 11  2  0  0  0  0
 13 10  1  0  0  0  0
 13 17  1  0  0  0  0
 14 15  1  0  0  0  0
 14 13  1  0  0  0  0
 15 16  1  0  0  0  0
 16 17  1  0  0  0  0
 18  2  1  0  0  0  0
 19 18  1  0  0  0  0
 20 18  1  0  0  0  0
 20 29  1  0  0  0  0
 21 20  2  0  0  0  0
 22 21  1  0  0  0  0
 22 23  2  0  0  0  0
 23 24  1  0  0  0  0
 24 29  2  0  0  0  0
 24 25  1  0  0  0  0
 25 26  2  0  0  0  0
 26 27  1  0  0  0  0
 28 27  2  0  0  0  0
 29 28  1  0  0  0  0
 30 32  2  0  0  0  0
 30 25  1  0  0  0  0
 31 30  1  0  0  0  0
 33 31  1  0  0  0  0
 34 31  1  0  0  0  0
M  END
>  <minimizedAffinity>
-8.58861732

$$$$
