
 OpenBabel10152418343D

 34 37  0  0  1  0  0  0  0  0999 V2000
    4.8400  -10.8560  -26.5070 C   0  0  0  0  0  1  0  0  0  0  0  0
    3.4390  -10.3510  -26.8860 C   0  0  2  0  0  3  0  0  0  0  0  0
    3.5840   -9.2990  -27.9830 C   0  0  0  0  0  0  0  0  0  0  0  0
    3.8470   -9.7260  -29.2960 C   0  0  0  0  0  3  0  0  0  0  0  0
    4.0140   -8.8030  -30.3280 C   0  0  0  0  0  3  0  0  0  0  0  0
    3.8400   -7.4400  -30.0860 C   0  0  0  0  0  3  0  0  0  0  0  0
    3.4700   -7.0020  -28.8260 C   0  0  0  0  0  0  0  0  0  0  0  0
    3.4750   -7.9170  -27.7640 C   0  0  0  0  0  3  0  0  0  0  0  0
    3.1070   -5.6900  -28.5160 N   0  0  0  0  0  0  0  0  0  0  0  0
    1.9490   -5.0230  -28.2970 C   0  0  0  0  0  0  0  0  0  0  0  0
    2.0870   -3.7940  -28.1800 O   0  0  0  0  0  0  0  0  0  0  0  0
    3.8810   -5.0590  -28.3380 H   0  0  0  0  0  0  0  0  0  0  0  0
    0.5370   -5.6070  -28.1680 C   0  0  0  0  0  3  0  0  0  0  0  0
    0.2440   -7.0120  -27.6590 C   0  0  0  0  0  2  0  0  0  0  0  0
   -1.2200   -6.9520  -27.2400 C   0  0  0  0  0  2  0  0  0  0  0  0
   -1.3800   -5.5920  -26.5930 C   0  0  0  0  0  2  0  0  0  0  0  0
   -0.2180   -4.7520  -27.1170 C   0  0  0  0  0  2  0  0  0  0  0  0
    2.7560   -9.9580  -25.6530 N   0  0  0  0  0  0  0  0  0  0  0  0
    3.2400   -9.2510  -25.1060 H   0  0  0  0  0  0  0  0  0  0  0  0
    1.4200   -9.8790  -25.3630 C   0  0  0  0  0  0  0  0  0  0  0  0
    0.8180  -11.0580  -25.5950 N   0  0  0  0  0  0  0  0  0  0  0  0
   -0.4160  -11.2030  -25.1240 C   0  0  0  0  0  3  0  0  0  0  0  0
   -1.0910  -10.2940  -24.4170 N   0  0  0  0  0  0  0  0  0  0  0  0
   -0.5250   -9.0790  -24.2420 C   0  0  0  0  0  0  0  0  0  0  0  0
   -1.1640   -8.0600  -23.5080 C   0  0  0  0  0  0  0  0  0  0  0  0
   -0.6030   -6.7740  -23.3990 C   0  0  0  0  0  3  0  0  0  0  0  0
    0.6040   -6.4790  -24.0090 C   0  0  0  0  0  3  0  0  0  0  0  0
    1.2770   -7.4850  -24.6880 C   0  0  0  0  0  3  0  0  0  0  0  0
    0.7470   -8.7960  -24.7790 C   0  0  0  0  0  0  0  0  0  0  0  0
   -2.4490   -8.2670  -22.7640 C   0  0  0  0  0  0  0  0  0  0  0  0
   -2.4640   -9.1580  -21.7300 N   0  0  0  0  0  0  0  0  0  0  0  0
   -3.4610   -7.6420  -23.0490 O   0  0  0  0  0  0  0  0  0  0  0  0
   -3.3140   -9.2800  -21.1990 H   0  0  0  0  0  0  0  0  0  0  0  0
   -1.6360   -9.6910  -21.4870 H   0  0  0  0  0  0  0  0  0  0  0  0
  2  1  1  1  0  0  0
  2 18  1  0  0  0  0
  3  8  1  0  0  0  0
  3  2  1  0  0  0  0
  4  3  2  0  0  0  0
  5  6  2  0  0  0  0
  5  4  1  0  0  0  0
  6  7  1  0  0  0  0
  7  9  1  0  0  0  0
  7  8  2  0  0  0  0
  9 12  1  0  0  0  0
  9 10  1  0  0  0  0
 10 11  2  0  0  0  0
 10 13  1  0  0  0  0
 13 14  1  0  0  0  0
 13 17  1  0  0  0  0
 14 15  1  0  0  0  0
 15 16  1  0  0  0  0
 17 16  1  0  0  0  0
 18 20  1  0  0  0  0
 18 19  1  0  0  0  0
 20 29  1  0  0  0  0
 21 20  2  0  0  0  0
 21 22  1  0  0  0  0
 22 23  2  0  0  0  0
 23 24  1  0  0  0  0
 24 25  1  0  0  0  0
 25 26  2  0  0  0  0
 25 30  1  0  0  0  0
 27 26  1  0  0  0  0
 28 27  2  0  0  0  0
 29 28  1  0  0  0  0
 29 24  2  0  0  0  0
 30 31  1  0  0  0  0
 31 34  1  0  0  0  0
 31 33  1  0  0  0  0
 32 30  2  0  0  0  0
M  END
>  <minimizedAffinity>
-8.57419872

$$$$
