
 OpenBabel10152418343D

 34 37  0  0  1  0  0  0  0  0999 V2000
   -1.7420   -6.8790  -25.7100 C   0  0  0  0  0  1  0  0  0  0  0  0
   -0.2470   -6.7690  -25.3750 C   0  0  2  0  0  3  0  0  0  0  0  0
    0.4680   -6.1230  -26.5610 C   0  0  0  0  0  0  0  0  0  0  0  0
    0.1930   -4.7790  -26.8620 C   0  0  0  0  0  3  0  0  0  0  0  0
    0.8000   -4.1510  -27.9500 C   0  0  0  0  0  3  0  0  0  0  0  0
    1.7550   -4.8290  -28.7080 C   0  0  0  0  0  3  0  0  0  0  0  0
    2.1270   -6.1170  -28.3630 C   0  0  0  0  0  0  0  0  0  0  0  0
    1.3890   -6.7930  -27.3810 C   0  0  0  0  0  3  0  0  0  0  0  0
    3.1840   -6.8220  -28.9420 N   0  0  0  0  0  0  0  0  0  0  0  0
    3.9830   -7.8530  -28.5820 C   0  0  0  0  0  0  0  0  0  0  0  0
    4.9120   -8.0760  -29.3780 O   0  0  0  0  0  0  0  0  0  0  0  0
    3.3960   -6.5690  -29.9020 H   0  0  0  0  0  0  0  0  0  0  0  0
    3.8580   -8.7540  -27.3480 C   0  0  0  0  0  3  0  0  0  0  0  0
    2.6460   -9.6280  -27.0560 C   0  0  0  0  0  2  0  0  0  0  0  0
    3.1700  -10.6640  -26.0690 C   0  0  0  0  0  2  0  0  0  0  0  0
    4.5600  -11.0020  -26.5670 C   0  0  0  0  0  2  0  0  0  0  0  0
    4.9740   -9.8260  -27.4480 C   0  0  0  0  0  2  0  0  0  0  0  0
    0.2130   -8.0880  -24.9400 N   0  0  0  0  0  0  0  0  0  0  0  0
    1.1940   -8.1310  -24.6770 H   0  0  0  0  0  0  0  0  0  0  0  0
   -0.4490   -9.0840  -24.2740 C   0  0  0  0  0  0  0  0  0  0  0  0
   -0.3390  -10.2470  -24.9370 N   0  0  0  0  0  0  0  0  0  0  0  0
   -0.7130  -11.3450  -24.2880 C   0  0  0  0  0  3  0  0  0  0  0  0
   -1.1550  -11.3920  -23.0300 N   0  0  0  0  0  0  0  0  0  0  0  0
   -1.3400  -10.2220  -22.3780 C   0  0  0  0  0  0  0  0  0  0  0  0
   -1.8010  -10.1770  -21.0470 C   0  0  0  0  0  0  0  0  0  0  0  0
   -2.0660   -8.9540  -20.4050 C   0  0  0  0  0  3  0  0  0  0  0  0
   -1.8710   -7.7540  -21.0690 C   0  0  0  0  0  3  0  0  0  0  0  0
   -1.3630   -7.7760  -22.3600 C   0  0  0  0  0  3  0  0  0  0  0  0
   -1.0560   -8.9960  -23.0120 C   0  0  0  0  0  0  0  0  0  0  0  0
   -2.0060  -11.4030  -20.2080 C   0  0  0  0  0  0  0  0  0  0  0  0
   -0.9070  -12.0390  -19.7090 N   0  0  0  0  0  0  0  0  0  0  0  0
   -3.1260  -11.8190  -19.9480 O   0  0  0  0  0  0  0  0  0  0  0  0
   -1.0330  -12.8440  -19.1130 H   0  0  0  0  0  0  0  0  0  0  0  0
    0.0300  -11.7110  -19.9230 H   0  0  0  0  0  0  0  0  0  0  0  0
  2  1  1  6  0  0  0
  2 18  1  0  0  0  0
  3  2  1  0  0  0  0
  4  3  1  0  0  0  0
  5  4  2  0  0  0  0
  6  7  2  0  0  0  0
  6  5  1  0  0  0  0
  7  8  1  0  0  0  0
  8  3  2  0  0  0  0
  9 10  1  0  0  0  0
  9  7  1  0  0  0  0
 10 13  1  0  0  0  0
 11 10  2  0  0  0  0
 12  9  1  0  0  0  0
 13 14  1  0  0  0  0
 14 15  1  0  0  0  0
 16 15  1  0  0  0  0
 17 13  1  0  0  0  0
 17 16  1  0  0  0  0
 18 19  1  0  0  0  0
 18 20  1  0  0  0  0
 20 29  1  0  0  0  0
 21 22  1  0  0  0  0
 21 20  2  0  0  0  0
 22 23  2  0  0  0  0
 23 24  1  0  0  0  0
 24 25  1  0  0  0  0
 25 26  2  0  0  0  0
 25 30  1  0  0  0  0
 27 26  1  0  0  0  0
 28 27  2  0  0  0  0
 29 24  2  0  0  0  0
 29 28  1  0  0  0  0
 30 32  2  0  0  0  0
 30 31  1  0  0  0  0
 31 33  1  0  0  0  0
 34 31  1  0  0  0  0
M  END
>  <minimizedAffinity>
-9.35803795

$$$$
