
 OpenBabel10152418343D

 34 37  0  0  1  0  0  0  0  0999 V2000
    1.9750   -8.2070  -23.9460 C   0  0  0  0  0  1  0  0  0  0  0  0
    0.7620   -9.1330  -23.7700 C   0  0  2  0  0  3  0  0  0  0  0  0
    0.7720  -10.1640  -24.8970 C   0  0  0  0  0  0  0  0  0  0  0  0
   -0.4550  -10.5820  -25.4390 C   0  0  0  0  0  3  0  0  0  0  0  0
   -0.5010  -11.5400  -26.4510 C   0  0  0  0  0  3  0  0  0  0  0  0
    0.6810  -12.0390  -26.9990 C   0  0  0  0  0  3  0  0  0  0  0  0
    1.9040  -11.5610  -26.5610 C   0  0  0  0  0  0  0  0  0  0  0  0
    1.9390  -10.7310  -25.4300 C   0  0  0  0  0  3  0  0  0  0  0  0
    3.1330  -11.8620  -27.1510 N   0  0  0  0  0  0  0  0  0  0  0  0
    4.0690  -11.1860  -27.8570 C   0  0  0  0  0  0  0  0  0  0  0  0
    4.9740  -11.9030  -28.3150 O   0  0  0  0  0  0  0  0  0  0  0  0
    3.4790  -12.7990  -26.9720 H   0  0  0  0  0  0  0  0  0  0  0  0
    4.1350   -9.6780  -28.1300 C   0  0  0  0  0  3  0  0  0  0  0  0
    2.9110   -8.8080  -28.3820 C   0  0  0  0  0  2  0  0  0  0  0  0
    3.4020   -7.3940  -28.0960 C   0  0  0  0  0  2  0  0  0  0  0  0
    4.3050   -7.5360  -26.8890 C   0  0  0  0  0  2  0  0  0  0  0  0
    4.7130   -9.0070  -26.8570 C   0  0  0  0  0  2  0  0  0  0  0  0
   -0.4270   -8.2920  -23.6290 N   0  0  0  0  0  0  0  0  0  0  0  0
   -0.9320   -8.4120  -22.7560 H   0  0  0  0  0  0  0  0  0  0  0  0
   -0.6830   -7.0310  -24.0980 C   0  0  0  0  0  0  0  0  0  0  0  0
   -0.9880   -6.2050  -23.0830 N   0  0  0  0  0  0  0  0  0  0  0  0
   -1.0140   -4.9040  -23.3560 C   0  0  0  0  0  3  0  0  0  0  0  0
   -0.7310   -4.3520  -24.5370 N   0  0  0  0  0  0  0  0  0  0  0  0
   -0.4960   -5.1760  -25.5830 C   0  0  0  0  0  0  0  0  0  0  0  0
   -0.1870   -4.6800  -26.8650 C   0  0  0  0  0  0  0  0  0  0  0  0
   -0.0230   -5.5440  -27.9640 C   0  0  0  0  0  3  0  0  0  0  0  0
   -0.1530   -6.9130  -27.8080 C   0  0  0  0  0  3  0  0  0  0  0  0
   -0.4000   -7.4250  -26.5420 C   0  0  0  0  0  3  0  0  0  0  0  0
   -0.5330   -6.5750  -25.4160 C   0  0  0  0  0  0  0  0  0  0  0  0
    0.0250   -3.2240  -27.1530 C   0  0  0  0  0  0  0  0  0  0  0  0
   -0.8040   -2.3170  -26.5590 N   0  0  0  0  0  0  0  0  0  0  0  0
    0.9320   -2.8410  -27.8800 O   0  0  0  0  0  0  0  0  0  0  0  0
   -0.6480   -1.3320  -26.7170 H   0  0  0  0  0  0  0  0  0  0  0  0
   -1.5660   -2.6190  -25.9610 H   0  0  0  0  0  0  0  0  0  0  0  0
  2  1  1  6  0  0  0
  2 18  1  0  0  0  0
  3  2  1  0  0  0  0
  4  3  2  0  0  0  0
  5  4  1  0  0  0  0
  6  7  1  0  0  0  0
  6  5  2  0  0  0  0
  7  8  2  0  0  0  0
  8  3  1  0  0  0  0
  9 12  1  0  0  0  0
  9  7  1  0  0  0  0
 10  9  1  0  0  0  0
 11 10  2  0  0  0  0
 13 10  1  0  0  0  0
 13 17  1  0  0  0  0
 14 13  1  0  0  0  0
 14 15  1  0  0  0  0
 15 16  1  0  0  0  0
 16 17  1  0  0  0  0
 18 19  1  0  0  0  0
 20 18  1  0  0  0  0
 20 21  1  0  0  0  0
 22 21  2  0  0  0  0
 23 22  1  0  0  0  0
 24 29  1  0  0  0  0
 24 23  2  0  0  0  0
 25 24  1  0  0  0  0
 26 27  1  0  0  0  0
 26 25  2  0  0  0  0
 27 28  2  0  0  0  0
 28 29  1  0  0  0  0
 29 20  2  0  0  0  0
 30 25  1  0  0  0  0
 30 31  1  0  0  0  0
 31 34  1  0  0  0  0
 32 30  2  0  0  0  0
 33 31  1  0  0  0  0
M  END
>  <minimizedAffinity>
-7.46233988

$$$$
