
 OpenBabel10152418343D

 34 37  0  0  1  0  0  0  0  0999 V2000
   -3.5770   -8.3150  -22.6900 C   0  0  0  0  0  1  0  0  0  0  0  0
   -2.1810   -8.6910  -23.2090 C   0  0  2  0  0  3  0  0  0  0  0  0
   -1.4980   -7.4240  -23.7210 C   0  0  0  0  0  0  0  0  0  0  0  0
   -0.9160   -6.5490  -22.7880 C   0  0  0  0  0  3  0  0  0  0  0  0
   -0.3030   -5.3670  -23.2020 C   0  0  0  0  0  3  0  0  0  0  0  0
   -0.1880   -5.0750  -24.5610 C   0  0  0  0  0  3  0  0  0  0  0  0
   -0.6530   -5.9740  -25.5050 C   0  0  0  0  0  0  0  0  0  0  0  0
   -1.4170   -7.0690  -25.0760 C   0  0  0  0  0  3  0  0  0  0  0  0
   -0.4400   -5.8640  -26.8810 N   0  0  0  0  0  0  0  0  0  0  0  0
    0.6040   -6.0430  -27.7240 C   0  0  0  0  0  0  0  0  0  0  0  0
    0.3740   -5.6930  -28.8940 O   0  0  0  0  0  0  0  0  0  0  0  0
   -1.2690   -5.6650  -27.4310 H   0  0  0  0  0  0  0  0  0  0  0  0
    1.9850   -6.6240  -27.4010 C   0  0  0  0  0  3  0  0  0  0  0  0
    2.2030   -7.8730  -26.5580 C   0  0  0  0  0  2  0  0  0  0  0  0
    3.6090   -8.3270  -26.9310 C   0  0  0  0  0  2  0  0  0  0  0  0
    3.7080   -8.0890  -28.4230 C   0  0  0  0  0  2  0  0  0  0  0  0
    2.6220   -7.0650  -28.7450 C   0  0  0  0  0  2  0  0  0  0  0  0
   -2.3360   -9.8050  -24.1460 N   0  0  0  0  0  0  0  0  0  0  0  0
   -3.2560   -9.8780  -24.5710 H   0  0  0  0  0  0  0  0  0  0  0  0
   -1.4300  -10.3880  -24.9910 C   0  0  0  0  0  0  0  0  0  0  0  0
   -1.7790  -10.1800  -26.2710 N   0  0  0  0  0  0  0  0  0  0  0  0
   -0.8680  -10.4680  -27.1950 C   0  0  0  0  0  3  0  0  0  0  0  0
    0.3670  -10.9130  -26.9560 N   0  0  0  0  0  0  0  0  0  0  0  0
    0.7040  -11.1970  -25.6780 C   0  0  0  0  0  0  0  0  0  0  0  0
    1.9860  -11.6690  -25.3350 C   0  0  0  0  0  0  0  0  0  0  0  0
    2.3010  -12.0370  -24.0130 C   0  0  0  0  0  3  0  0  0  0  0  0
    1.3530  -11.9360  -23.0100 C   0  0  0  0  0  3  0  0  0  0  0  0
    0.1020  -11.4190  -23.3170 C   0  0  0  0  0  3  0  0  0  0  0  0
   -0.2240  -11.0090  -24.6340 C   0  0  0  0  0  0  0  0  0  0  0  0
    3.1110  -11.7800  -26.3190 C   0  0  0  0  0  0  0  0  0  0  0  0
    2.8070  -12.0060  -27.6300 N   0  0  0  0  0  0  0  0  0  0  0  0
    4.2780  -11.6480  -25.9760 O   0  0  0  0  0  0  0  0  0  0  0  0
    3.5530  -12.0470  -28.3090 H   0  0  0  0  0  0  0  0  0  0  0  0
    1.8450  -12.1270  -27.9310 H   0  0  0  0  0  0  0  0  0  0  0  0
  2  1  1  6  0  0  0
  3  2  1  0  0  0  0
  3  4  1  0  0  0  0
  5  4  2  0  0  0  0
  6  5  1  0  0  0  0
  7  8  1  0  0  0  0
  7  6  2  0  0  0  0
  8  3  2  0  0  0  0
  9  7  1  0  0  0  0
 10 13  1  0  0  0  0
 10  9  1  0  0  0  0
 11 10  2  0  0  0  0
 12  9  1  0  0  0  0
 13 14  1  0  0  0  0
 15 14  1  0  0  0  0
 16 15  1  0  0  0  0
 17 16  1  0  0  0  0
 17 13  1  0  0  0  0
 18  2  1  0  0  0  0
 19 18  1  0  0  0  0
 20 29  1  0  0  0  0
 20 18  1  0  0  0  0
 21 20  2  0  0  0  0
 22 23  2  0  0  0  0
 22 21  1  0  0  0  0
 23 24  1  0  0  0  0
 24 25  2  0  0  0  0
 24 29  1  0  0  0  0
 25 26  1  0  0  0  0
 26 27  2  0  0  0  0
 28 27  1  0  0  0  0
 29 28  2  0  0  0  0
 30 32  2  0  0  0  0
 30 25  1  0  0  0  0
 31 30  1  0  0  0  0
 33 31  1  0  0  0  0
 34 31  1  0  0  0  0
M  END
>  <minimizedAffinity>
-6.93345213

$$$$
