
 OpenBabel10152418343D

 34 37  0  0  1  0  0  0  0  0999 V2000
    4.5330  -10.0390  -26.4220 C   0  0  0  0  0  1  0  0  0  0  0  0
    3.9960  -10.6470  -27.7260 C   0  0  2  0  0  3  0  0  0  0  0  0
    3.8830   -9.5370  -28.7680 C   0  0  0  0  0  0  0  0  0  0  0  0
    4.1360   -9.8490  -30.1150 C   0  0  0  0  0  3  0  0  0  0  0  0
    4.0720   -8.8650  -31.1010 C   0  0  0  0  0  3  0  0  0  0  0  0
    3.6750   -7.5680  -30.7740 C   0  0  0  0  0  3  0  0  0  0  0  0
    3.3120   -7.2620  -29.4740 C   0  0  0  0  0  0  0  0  0  0  0  0
    3.5450   -8.2090  -28.4660 C   0  0  0  0  0  3  0  0  0  0  0  0
    2.7420   -6.0520  -29.0710 N   0  0  0  0  0  0  0  0  0  0  0  0
    1.7380   -5.6730  -28.2470 C   0  0  0  0  0  0  0  0  0  0  0  0
    1.4780   -4.4580  -28.2910 O   0  0  0  0  0  0  0  0  0  0  0  0
    3.2120   -5.2200  -29.4110 H   0  0  0  0  0  0  0  0  0  0  0  0
    0.9260   -6.5500  -27.2870 C   0  0  0  0  0  3  0  0  0  0  0  0
    1.3430   -6.8480  -25.8530 C   0  0  0  0  0  2  0  0  0  0  0  0
    0.0510   -7.2930  -25.1800 C   0  0  0  0  0  2  0  0  0  0  0  0
   -1.0150   -6.3810  -25.7510 C   0  0  0  0  0  2  0  0  0  0  0  0
   -0.4330   -5.8400  -27.0540 C   0  0  0  0  0  2  0  0  0  0  0  0
    2.7840  -11.4010  -27.4020 N   0  0  0  0  0  0  0  0  0  0  0  0
    2.6330  -12.2290  -27.9720 H   0  0  0  0  0  0  0  0  0  0  0  0
    2.1470  -11.5880  -26.2040 C   0  0  0  0  0  0  0  0  0  0  0  0
    3.0090  -12.0390  -25.2780 N   0  0  0  0  0  0  0  0  0  0  0  0
    2.5950  -12.0260  -24.0160 C   0  0  0  0  0  3  0  0  0  0  0  0
    1.4130  -11.5750  -23.5900 N   0  0  0  0  0  0  0  0  0  0  0  0
    0.5100  -11.1880  -24.5180 C   0  0  0  0  0  0  0  0  0  0  0  0
   -0.7610  -10.6970  -24.1590 C   0  0  0  0  0  0  0  0  0  0  0  0
   -1.7220  -10.3720  -25.1340 C   0  0  0  0  0  3  0  0  0  0  0  0
   -1.4380  -10.5220  -26.4810 C   0  0  0  0  0  3  0  0  0  0  0  0
   -0.1720  -10.9500  -26.8560 C   0  0  0  0  0  3  0  0  0  0  0  0
    0.8220  -11.2480  -25.8920 C   0  0  0  0  0  0  0  0  0  0  0  0
   -1.1730  -10.4460  -22.7400 C   0  0  0  0  0  0  0  0  0  0  0  0
   -1.5680  -11.5090  -21.9810 N   0  0  0  0  0  0  0  0  0  0  0  0
   -1.1370   -9.3250  -22.2520 O   0  0  0  0  0  0  0  0  0  0  0  0
   -1.8140  -11.3590  -21.0140 H   0  0  0  0  0  0  0  0  0  0  0  0
   -1.6120  -12.4440  -22.3740 H   0  0  0  0  0  0  0  0  0  0  0  0
  2 18  1  0  0  0  0
  2  1  1  1  0  0  0
  3  8  1  0  0  0  0
  3  2  1  0  0  0  0
  4  3  2  0  0  0  0
  5  6  2  0  0  0  0
  5  4  1  0  0  0  0
  6  7  1  0  0  0  0
  7  9  1  0  0  0  0
  7  8  2  0  0  0  0
  9 10  1  0  0  0  0
 10 13  1  0  0  0  0
 11 10  2  0  0  0  0
 12  9  1  0  0  0  0
 13 17  1  0  0  0  0
 13 14  1  0  0  0  0
 14 15  1  0  0  0  0
 16 15  1  0  0  0  0
 17 16  1  0  0  0  0
 18 20  1  0  0  0  0
 19 18  1  0  0  0  0
 20 29  2  0  0  0  0
 20 21  1  0  0  0  0
 21 22  2  0  0  0  0
 22 23  1  0  0  0  0
 24 25  1  0  0  0  0
 24 23  2  0  0  0  0
 25 30  1  0  0  0  0
 26 25  2  0  0  0  0
 27 26  1  0  0  0  0
 28 27  2  0  0  0  0
 28 29  1  0  0  0  0
 29 24  1  0  0  0  0
 30 32  2  0  0  0  0
 30 31  1  0  0  0  0
 31 33  1  0  0  0  0
 34 31  1  0  0  0  0
M  END
>  <minimizedAffinity>
-8.7676506

$$$$
