REMARK  Name = 
REMARK  7 active torsions:
REMARK  status: ('A' for Active; 'I' for Inactive)
REMARK    1  A    between atoms: C_1  and  C_2
REMARK    2  A    between atoms: C_2  and  N_3
REMARK    3  A    between atoms: C_2  and  C_17
REMARK    4  A    between atoms: N_3  and  C_4
REMARK    5  A    between atoms: C_9  and  C_10
REMARK    6  A    between atoms: C_21  and  N_22
REMARK    7  A    between atoms: C_23  and  C_25
REMARK                            x       y       z     vdW  Elec       q    Type
REMARK                         _______ _______ _______ _____ _____    ______ ____
ROOT
ATOM      1  C   UNL     1       1.639  -0.141  -0.354  0.00  0.00    +0.033 C 
ATOM      2  C   UNL     1       0.643  -0.014  -1.517  0.00  0.00    +0.099 C 
ENDROOT
BRANCH   2   3
ATOM      3  C   UNL     1      -0.762   0.134  -0.937  0.00  0.00    -0.026 A 
ATOM      4  C   UNL     1      -1.163   1.392  -0.456  0.00  0.00    +0.005 A 
ATOM      5  C   UNL     1      -2.426   1.573   0.107  0.00  0.00    +0.002 A 
ATOM      6  C   UNL     1      -3.343   0.522   0.126  0.00  0.00    +0.023 A 
ATOM      7  C   UNL     1      -3.013  -0.696  -0.443  0.00  0.00    +0.034 A 
ATOM      8  C   UNL     1      -1.688  -0.916  -0.847  0.00  0.00    +0.028 A 
BRANCH   7   9
ATOM      9  N   UNL     1      -3.905  -1.754  -0.630  0.00  0.00    -0.285 N 
ATOM     10  C   UNL     1      -5.240  -1.885  -0.808  0.00  0.00    +0.220 C 
ATOM     11  O   UNL     1      -5.639  -3.062  -0.800  0.00  0.00    -0.275 OA
ATOM     12  H   UNL     1      -3.475  -2.668  -0.727  0.00  0.00    +0.155 HD
BRANCH  10  13
ATOM     13  C   UNL     1      -6.274  -0.774  -1.027  0.00  0.00    +0.075 C 
ATOM     14  C   UNL     1      -5.928   0.616  -1.544  0.00  0.00    +0.013 C 
ATOM     15  C   UNL     1      -7.256   1.156  -2.060  0.00  0.00    +0.001 C 
ATOM     16  C   UNL     1      -7.922  -0.030  -2.726  0.00  0.00    +0.001 C 
ATOM     17  C   UNL     1      -7.246  -1.263  -2.132  0.00  0.00    +0.013 C 
ENDBRANCH  10  13
ENDBRANCH   7   9
ENDBRANCH   2   3
BRANCH   2  18
ATOM     18  N   UNL     1       0.885  -1.126  -2.437  0.00  0.00    -0.322 N 
ATOM     19  H   UNL     1       1.587  -1.791  -2.125  0.00  0.00    +0.148 HD
BRANCH  18  20
ATOM     20  C   UNL     1       0.032  -1.777  -3.288  0.00  0.00    +0.130 A 
ATOM     21  N   UNL     1       0.255  -3.101  -3.256  0.00  0.00    -0.220 NA
ATOM     22  C   UNL     1      -0.656  -3.877  -3.834  0.00  0.00    +0.223 A 
ATOM     23  N   UNL     1      -1.783  -3.455  -4.411  0.00  0.00    -0.235 NA
ATOM     24  C   UNL     1      -1.982  -2.122  -4.515  0.00  0.00    +0.088 A 
ATOM     25  C   UNL     1      -3.144  -1.588  -5.107  0.00  0.00    +0.063 A 
ATOM     26  C   UNL     1      -3.305  -0.201  -5.282  0.00  0.00    +0.015 A 
ATOM     27  C   UNL     1      -2.321   0.680  -4.866  0.00  0.00    +0.002 A 
ATOM     28  C   UNL     1      -1.195   0.177  -4.229  0.00  0.00    +0.013 A 
ATOM     29  C   UNL     1      -1.030  -1.213  -4.011  0.00  0.00    +0.041 A 
BRANCH  25  30
ATOM     30  C   UNL     1      -4.299  -2.432  -5.555  0.00  0.00    +0.244 C 
ATOM     31  N   UNL     1      -4.249  -3.776  -5.324  0.00  0.00    -0.325 N 
ATOM     32  O   UNL     1      -5.281  -1.939  -6.093  0.00  0.00    -0.270 OA
ATOM     33  H   UNL     1      -5.036  -4.350  -5.589  0.00  0.00    +0.145 HD
ATOM     34  H   UNL     1      -3.438  -4.202  -4.887  0.00  0.00    +0.145 HD
ENDBRANCH  25  30
ENDBRANCH  18  20
ENDBRANCH   2  18
TORSDOF 6
