REMARK  Name = 
REMARK  9 active torsions:
REMARK  status: ('A' for Active; 'I' for Inactive)
REMARK    1  A    between atoms: C_1  and  C_2
REMARK    2  A    between atoms: C_2  and  O_3
REMARK    3  A    between atoms: O_3  and  C_4
REMARK    4  A    between atoms: C_7  and  C_8
REMARK    5  A    between atoms: N_10  and  C_11
REMARK    6  A    between atoms: C_15  and  C_16
REMARK    7  A    between atoms: C_16  and  N_17
REMARK    8  A    between atoms: N_17  and  C_18
REMARK    9  A    between atoms: C_23  and  C_24
REMARK                            x       y       z     vdW  Elec       q    Type
REMARK                         _______ _______ _______ _____ _____    ______ ____
ROOT
ATOM      1  C   UNL     1       6.428   0.329   2.134  0.00  0.00    +0.034 A 
ATOM      2  C   UNL     1       7.236   1.075   1.277  0.00  0.00    +0.023 A 
ATOM      3  C   UNL     1       6.726   2.219   0.673  0.00  0.00    +0.002 A 
ATOM      4  C   UNL     1       5.425   2.637   0.960  0.00  0.00    +0.005 A 
ATOM      5  C   UNL     1       4.636   1.975   1.913  0.00  0.00    -0.029 A 
ATOM      6  C   UNL     1       5.163   0.815   2.498  0.00  0.00    +0.028 A 
ENDROOT
BRANCH   1   9
ATOM      7  C   UNL     1       6.228  -2.060   2.900  0.00  0.00    +0.248 C 
ATOM      8  O   UNL     1       6.779  -2.980   3.498  0.00  0.00    -0.270 OA
ATOM      9  N   UNL     1       6.923  -0.912   2.573  0.00  0.00    -0.281 N 
ATOM     10  H   UNL     1       7.928  -1.033   2.613  0.00  0.00    +0.155 HD
BRANCH   7  14
ATOM     11  C   UNL     1       2.147  -2.345   1.643  0.00  0.00    +0.121 A 
ATOM     12  C   UNL     1       2.521  -2.694   2.947  0.00  0.00    +0.046 A 
ATOM     13  C   UNL     1       3.858  -2.645   3.348  0.00  0.00    +0.016 A 
ATOM     14  C   UNL     1       4.829  -2.231   2.438  0.00  0.00    +0.037 A 
ATOM     15  C   UNL     1       4.474  -1.958   1.110  0.00  0.00    +0.016 A 
ATOM     16  C   UNL     1       3.133  -2.002   0.718  0.00  0.00    +0.046 A 
BRANCH  11  17
ATOM     17  O   UNL     1       0.801  -2.376   1.412  0.00  0.00    -0.492 OA
BRANCH  17  19
ATOM     18  C   UNL     1       0.209  -0.330   0.227  0.00  0.00    +0.048 C 
ATOM     19  C   UNL     1       0.296  -1.848   0.185  0.00  0.00    +0.225 C 
ENDBRANCH  17  19
ENDBRANCH  11  17
ENDBRANCH   7  14
ENDBRANCH   1   9
BRANCH   5  20
ATOM     20  C   UNL     1       3.221   2.428   2.251  0.00  0.00    +0.138 C 
BRANCH  20  21
ATOM     21  N   UNL     1       3.185   3.779   2.785  0.00  0.00    -0.324 N 
ATOM     22  H   UNL     1       3.299   3.912   3.776  0.00  0.00    +0.148 HD
BRANCH  21  23
ATOM     23  C   UNL     1       3.318   4.846   1.907  0.00  0.00    +0.130 A 
ATOM     24  N   UNL     1       2.688   4.730   0.725  0.00  0.00    -0.220 NA
ATOM     25  C   UNL     1       3.081   5.548  -0.249  0.00  0.00    +0.223 A 
ATOM     26  N   UNL     1       4.105   6.398  -0.179  0.00  0.00    -0.235 NA
ATOM     27  C   UNL     1       4.710   6.547   1.016  0.00  0.00    +0.088 A 
ATOM     28  C   UNL     1       5.826   7.376   1.171  0.00  0.00    +0.063 A 
ATOM     29  C   UNL     1       6.424   7.633   2.412  0.00  0.00    +0.015 A 
ATOM     30  C   UNL     1       5.942   6.997   3.543  0.00  0.00    +0.002 A 
ATOM     31  C   UNL     1       4.904   6.079   3.408  0.00  0.00    +0.013 A 
ATOM     32  C   UNL     1       4.288   5.837   2.149  0.00  0.00    +0.041 A 
BRANCH  28  33
ATOM     33  C   UNL     1       6.525   7.906  -0.013  0.00  0.00    +0.244 C 
ATOM     34  N   UNL     1       7.154   6.964  -0.783  0.00  0.00    -0.325 N 
ATOM     35  O   UNL     1       6.631   9.106  -0.219  0.00  0.00    -0.270 OA
ATOM     36  H   UNL     1       7.683   7.275  -1.586  0.00  0.00    +0.145 HD
ATOM     37  H   UNL     1       7.091   5.974  -0.593  0.00  0.00    +0.145 HD
ENDBRANCH  28  33
ENDBRANCH  21  23
ENDBRANCH  20  21
ENDBRANCH   5  20
TORSDOF 8
