REMARK  Name = 
REMARK  9 active torsions:
REMARK  status: ('A' for Active; 'I' for Inactive)
REMARK    1  A    between atoms: C_1  and  O_2
REMARK    2  A    between atoms: O_2  and  C_3
REMARK    3  A    between atoms: C_6  and  C_7
REMARK    4  A    between atoms: N_9  and  C_10
REMARK    5  A    between atoms: C_14  and  C_15
REMARK    6  A    between atoms: C_15  and  C_16
REMARK    7  A    between atoms: C_15  and  N_17
REMARK    8  A    between atoms: N_17  and  C_18
REMARK    9  A    between atoms: C_23  and  C_24
REMARK                            x       y       z     vdW  Elec       q    Type
REMARK                         _______ _______ _______ _____ _____    ______ ____
ROOT
ATOM      1  C   UNL     1       4.664  -4.574   1.531  0.00  0.00    +0.034 A 
ATOM      2  C   UNL     1       5.722  -4.692   0.628  0.00  0.00    +0.023 A 
ATOM      3  C   UNL     1       6.781  -3.787   0.664  0.00  0.00    +0.002 A 
ATOM      4  C   UNL     1       6.834  -2.811   1.660  0.00  0.00    +0.005 A 
ATOM      5  C   UNL     1       5.821  -2.720   2.629  0.00  0.00    -0.026 A 
ATOM      6  C   UNL     1       4.696  -3.569   2.507  0.00  0.00    +0.028 A 
ENDROOT
BRANCH   1   9
ATOM      7  C   UNL     1       2.416  -5.568   2.019  0.00  0.00    +0.248 C 
ATOM      8  O   UNL     1       1.929  -6.541   2.587  0.00  0.00    -0.270 OA
ATOM      9  N   UNL     1       3.698  -5.596   1.526  0.00  0.00    -0.281 N 
ATOM     10  H   UNL     1       4.025  -6.527   1.296  0.00  0.00    +0.155 HD
BRANCH   7  14
ATOM     11  C   UNL     1      -0.387  -2.578   0.823  0.00  0.00    +0.155 A 
ATOM     12  C   UNL     1      -0.392  -3.057   2.135  0.00  0.00    +0.049 A 
ATOM     13  C   UNL     1       0.564  -3.990   2.547  0.00  0.00    +0.017 A 
ATOM     14  C   UNL     1       1.536  -4.436   1.645  0.00  0.00    +0.040 A 
ATOM     15  C   UNL     1       1.528  -3.976   0.322  0.00  0.00    +0.055 A 
ATOM     16  C   UNL     1       0.561  -3.061  -0.082  0.00  0.00    +0.165 A 
ATOM     17  F   UNL     1       0.518  -2.721  -1.378  0.00  0.00    -0.202 F 
BRANCH  11  19
ATOM     18  C   UNL     1      -0.915  -0.534  -0.144  0.00  0.00    +0.277 C 
ATOM     19  O   UNL     1      -1.399  -1.718   0.491  0.00  0.00    -0.492 OA
ENDBRANCH  11  19
ENDBRANCH   7  14
ENDBRANCH   1   9
BRANCH   5  20
ATOM     20  C   UNL     1       5.977  -1.822   3.864  0.00  0.00    +0.099 C 
ATOM     21  C   UNL     1       7.202  -2.249   4.679  0.00  0.00    +0.033 C 
BRANCH  20  22
ATOM     22  N   UNL     1       6.112  -0.410   3.511  0.00  0.00    -0.322 N 
ATOM     23  H   UNL     1       7.009  -0.077   3.197  0.00  0.00    +0.148 HD
BRANCH  22  24
ATOM     24  C   UNL     1       4.953   0.194   3.017  0.00  0.00    +0.130 A 
ATOM     25  N   UNL     1       3.803  -0.118   3.638  0.00  0.00    -0.220 NA
ATOM     26  C   UNL     1       2.696  -0.029   2.908  0.00  0.00    +0.223 A 
ATOM     27  N   UNL     1       2.662   0.221   1.600  0.00  0.00    -0.235 NA
ATOM     28  C   UNL     1       3.811   0.613   1.012  0.00  0.00    +0.088 A 
ATOM     29  C   UNL     1       3.938   0.793  -0.368  0.00  0.00    +0.063 A 
ATOM     30  C   UNL     1       5.052   1.402  -0.969  0.00  0.00    +0.015 A 
ATOM     31  C   UNL     1       6.135   1.760  -0.186  0.00  0.00    +0.002 A 
ATOM     32  C   UNL     1       6.132   1.384   1.151  0.00  0.00    +0.013 A 
ATOM     33  C   UNL     1       4.987   0.777   1.742  0.00  0.00    +0.041 A 
BRANCH  29  34
ATOM     34  C   UNL     1       3.034   0.025  -1.252  0.00  0.00    +0.244 C 
ATOM     35  N   UNL     1       3.675  -0.997  -1.919  0.00  0.00    -0.325 N 
ATOM     36  O   UNL     1       1.857   0.259  -1.380  0.00  0.00    -0.270 OA
ATOM     37  H   UNL     1       3.114  -1.614  -2.491  0.00  0.00    +0.145 HD
ATOM     38  H   UNL     1       4.655  -1.208  -1.794  0.00  0.00    +0.145 HD
ENDBRANCH  29  34
ENDBRANCH  22  24
ENDBRANCH  20  22
ENDBRANCH   5  20
TORSDOF 7
