
 OpenBabel10152419473D

 38 41  0  0  0  0  0  0  0  0999 V2000
    1.9360  -11.6480  -26.5200 C   0  0  0  0  0  0  0  0  0  0  0  0
    2.6880  -12.4110  -25.6230 C   0  0  0  0  0  3  0  0  0  0  0  0
    4.0700  -12.2430  -25.5560 C   0  0  0  0  0  3  0  0  0  0  0  0
    4.7150  -11.3240  -26.3910 C   0  0  0  0  0  3  0  0  0  0  0  0
    3.9890  -10.5780  -27.3200 C   0  0  0  0  0  0  0  0  0  0  0  0
    2.6000  -10.7370  -27.3620 C   0  0  0  0  0  3  0  0  0  0  0  0
    4.5400   -9.6210  -28.1930 N   0  0  0  0  0  0  0  0  0  0  0  0
    4.0650   -8.4250  -28.6740 C   0  0  0  0  0  0  0  0  0  0  0  0
    4.5960   -7.8910  -29.6460 O   0  0  0  0  0  0  0  0  0  0  0  0
    5.4430   -9.8510  -28.5950 H   0  0  0  0  0  0  0  0  0  0  0  0
    2.9760   -7.7120  -28.0010 C   0  0  0  0  0  0  0  0  0  0  0  0
    2.1750   -6.7870  -28.6690 C   0  0  0  0  0  3  0  0  0  0  0  0
    1.1770   -6.1210  -27.9580 C   0  0  0  0  0  3  0  0  0  0  0  0
    1.0010   -6.3980  -26.5980 C   0  0  0  0  0  0  0  0  0  0  0  0
    1.7580   -7.3400  -25.9550 N   0  0  0  0  0  0  0  0  0  0  0  0
    2.7110   -7.9850  -26.6710 C   0  0  0  0  0  3  0  0  0  0  0  0
   -0.0620   -5.6430  -25.8060 C   0  0  0  0  0  0  0  0  0  0  0  0
   -1.3330   -5.9710  -26.1710 F   0  0  0  0  0  0  0  0  0  0  0  0
    0.0170   -5.8570  -24.4610 F   0  0  0  0  0  0  0  0  0  0  0  0
    0.0230   -4.2870  -25.9600 F   0  0  0  0  0  0  0  0  0  0  0  0
    0.4360  -11.8010  -26.6220 C   0  0  0  0  0  2  0  0  0  0  0  0
   -2.2810   -8.7780  -22.0800 C   0  0  0  0  0  0  0  0  0  0  0  0
   -2.8240   -7.6990  -22.7980 C   0  0  0  0  0  3  0  0  0  0  0  0
   -2.5790   -7.5910  -24.1560 C   0  0  0  0  0  3  0  0  0  0  0  0
   -1.7920   -8.5560  -24.7800 C   0  0  0  0  0  3  0  0  0  0  0  0
   -1.2320   -9.6430  -24.0530 C   0  0  0  0  0  0  0  0  0  0  0  0
   -0.4350  -10.6540  -24.6300 C   0  0  0  0  0  0  0  0  0  0  0  0
   -0.1870  -10.6520  -25.9980 N   0  0  0  0  0  0  0  0  0  0  0  0
    0.0350  -11.6870  -23.9140 N   0  0  0  0  0  0  0  0  0  0  0  0
   -0.2690  -11.7090  -22.6160 C   0  0  0  0  0  3  0  0  0  0  0  0
   -1.0110  -10.8070  -21.9710 N   0  0  0  0  0  0  0  0  0  0  0  0
   -1.4840   -9.7650  -22.6750 C   0  0  0  0  0  0  0  0  0  0  0  0
    0.0290   -9.7580  -26.4160 H   0  0  0  0  0  0  0  0  0  0  0  0
   -3.0600   -7.6880  -20.0800 N   0  0  0  0  0  0  0  0  0  0  0  0
   -2.5720   -8.8400  -20.6340 C   0  0  0  0  0  0  0  0  0  0  0  0
   -2.3420   -9.8340  -19.9610 O   0  0  0  0  0  0  0  0  0  0  0  0
   -3.2700   -7.6990  -19.0900 H   0  0  0  0  0  0  0  0  0  0  0  0
   -3.2840   -6.8630  -20.6180 H   0  0  0  0  0  0  0  0  0  0  0  0
  1  2  1  0  0  0  0
  2  3  2  0  0  0  0
  4  3  1  0  0  0  0
  5  4  2  0  0  0  0
  6  5  1  0  0  0  0
  6  1  2  0  0  0  0
  7  5  1  0  0  0  0
  8  7  1  0  0  0  0
  8 11  1  0  0  0  0
  9  8  2  0  0  0  0
 10  7  1  0  0  0  0
 11 16  1  0  0  0  0
 12 11  2  0  0  0  0
 12 13  1  0  0  0  0
 13 14  2  0  0  0  0
 14 15  1  0  0  0  0
 14 17  1  0  0  0  0
 16 15  2  0  0  0  0
 17 19  1  0  0  0  0
 18 17  1  0  0  0  0
 20 17  1  0  0  0  0
 21  1  1  0  0  0  0
 21 28  1  0  0  0  0
 22 35  1  0  0  0  0
 23 22  2  0  0  0  0
 24 23  1  0  0  0  0
 25 24  2  0  0  0  0
 25 26  1  0  0  0  0
 26 32  1  0  0  0  0
 27 26  2  0  0  0  0
 27 29  1  0  0  0  0
 28 27  1  0  0  0  0
 29 30  2  0  0  0  0
 30 31  1  0  0  0  0
 32 22  1  0  0  0  0
 32 31  2  0  0  0  0
 33 28  1  0  0  0  0
 34 37  1  0  0  0  0
 35 34  1  0  0  0  0
 35 36  2  0  0  0  0
 38 34  1  0  0  0  0
M  END
>  <minimizedAffinity>
-7.91132116

$$$$
