
 OpenBabel10152419473D

 38 41  0  0  0  0  0  0  0  0999 V2000
   -0.5260   -6.3770  -26.9360 C   0  0  0  0  0  0  0  0  0  0  0  0
   -0.7630   -5.0180  -26.7200 C   0  0  0  0  0  3  0  0  0  0  0  0
    0.1660   -4.0730  -27.1550 C   0  0  0  0  0  3  0  0  0  0  0  0
    1.3420   -4.4770  -27.7960 C   0  0  0  0  0  3  0  0  0  0  0  0
    1.6160   -5.8310  -27.9900 C   0  0  0  0  0  0  0  0  0  0  0  0
    0.6660   -6.7690  -27.5720 C   0  0  0  0  0  3  0  0  0  0  0  0
    2.7600   -6.3380  -28.6350 N   0  0  0  0  0  0  0  0  0  0  0  0
    3.6310   -7.3510  -28.3150 C   0  0  0  0  0  0  0  0  0  0  0  0
    4.7220   -7.4340  -28.8750 O   0  0  0  0  0  0  0  0  0  0  0  0
    3.0480   -5.8530  -29.4790 H   0  0  0  0  0  0  0  0  0  0  0  0
    3.2580   -8.4040  -27.3660 C   0  0  0  0  0  0  0  0  0  0  0  0
    2.7590   -8.1120  -26.0980 C   0  0  0  0  0  3  0  0  0  0  0  0
    2.4540   -9.1630  -25.2330 C   0  0  0  0  0  3  0  0  0  0  0  0
    2.6510  -10.4810  -25.6590 C   0  0  0  0  0  0  0  0  0  0  0  0
    3.0980  -10.7670  -26.9210 N   0  0  0  0  0  0  0  0  0  0  0  0
    3.3720   -9.7290  -27.7480 C   0  0  0  0  0  3  0  0  0  0  0  0
    2.3590  -11.6340  -24.7040 C   0  0  0  0  0  0  0  0  0  0  0  0
    1.4720  -12.5350  -25.2110 F   0  0  0  0  0  0  0  0  0  0  0  0
    3.4720  -12.3440  -24.3620 F   0  0  0  0  0  0  0  0  0  0  0  0
    1.8190  -11.2180  -23.5180 F   0  0  0  0  0  0  0  0  0  0  0  0
   -1.5100   -7.4320  -26.4800 C   0  0  0  0  0  2  0  0  0  0  0  0
   -1.5200  -10.5450  -21.2400 C   0  0  0  0  0  0  0  0  0  0  0  0
   -1.6300   -9.4830  -20.3280 C   0  0  0  0  0  3  0  0  0  0  0  0
   -1.6430   -8.1800  -20.7950 C   0  0  0  0  0  3  0  0  0  0  0  0
   -1.5420   -7.9530  -22.1660 C   0  0  0  0  0  3  0  0  0  0  0  0
   -1.4190   -9.0270  -23.0910 C   0  0  0  0  0  0  0  0  0  0  0  0
   -1.3210   -8.8600  -24.4880 C   0  0  0  0  0  0  0  0  0  0  0  0
   -1.3830   -7.5880  -25.0450 N   0  0  0  0  0  0  0  0  0  0  0  0
   -1.2530   -9.9040  -25.3280 N   0  0  0  0  0  0  0  0  0  0  0  0
   -1.2620  -11.1190  -24.7800 C   0  0  0  0  0  3  0  0  0  0  0  0
   -1.3500  -11.3900  -23.4770 N   0  0  0  0  0  0  0  0  0  0  0  0
   -1.4140  -10.3530  -22.6240 C   0  0  0  0  0  0  0  0  0  0  0  0
   -0.8650   -6.8620  -24.5710 H   0  0  0  0  0  0  0  0  0  0  0  0
   -2.5030  -12.7400  -21.1290 N   0  0  0  0  0  0  0  0  0  0  0  0
   -1.5070  -11.9130  -20.6850 C   0  0  0  0  0  0  0  0  0  0  0  0
   -0.6970  -12.2710  -19.8420 O   0  0  0  0  0  0  0  0  0  0  0  0
   -2.5210  -13.6850  -20.7670 H   0  0  0  0  0  0  0  0  0  0  0  0
   -3.1670  -12.4780  -21.8440 H   0  0  0  0  0  0  0  0  0  0  0  0
  1  2  1  0  0  0  0
  1 21  1  0  0  0  0
  3  2  2  0  0  0  0
  4  3  1  0  0  0  0
  5  4  2  0  0  0  0
  5  6  1  0  0  0  0
  6  1  2  0  0  0  0
  7  8  1  0  0  0  0
  7  5  1  0  0  0  0
  8 11  1  0  0  0  0
  9  8  2  0  0  0  0
 10  7  1  0  0  0  0
 11 12  1  0  0  0  0
 12 13  2  0  0  0  0
 14 13  1  0  0  0  0
 14 17  1  0  0  0  0
 15 14  2  0  0  0  0
 16 11  2  0  0  0  0
 16 15  1  0  0  0  0
 17 19  1  0  0  0  0
 17 20  1  0  0  0  0
 18 17  1  0  0  0  0
 21 28  1  0  0  0  0
 22 35  1  0  0  0  0
 22 23  1  0  0  0  0
 24 23  2  0  0  0  0
 25 24  1  0  0  0  0
 26 32  1  0  0  0  0
 26 25  2  0  0  0  0
 27 26  1  0  0  0  0
 28 33  1  0  0  0  0
 28 27  1  0  0  0  0
 29 30  1  0  0  0  0
 29 27  2  0  0  0  0
 30 31  2  0  0  0  0
 31 32  1  0  0  0  0
 32 22  2  0  0  0  0
 34 37  1  0  0  0  0
 34 35  1  0  0  0  0
 35 36  2  0  0  0  0
 38 34  1  0  0  0  0
M  END
>  <minimizedAffinity>
-9.95772362

$$$$
