
 OpenBabel10152419473D

 38 41  0  0  0  0  0  0  0  0999 V2000
    4.0430  -10.1610  -27.8070 C   0  0  0  0  0  0  0  0  0  0  0  0
    4.1890  -10.9070  -28.9790 C   0  0  0  0  0  3  0  0  0  0  0  0
    4.1730  -12.3000  -28.9210 C   0  0  0  0  0  3  0  0  0  0  0  0
    4.0230  -12.9590  -27.6960 C   0  0  0  0  0  3  0  0  0  0  0  0
    3.9120  -12.2330  -26.5090 C   0  0  0  0  0  0  0  0  0  0  0  0
    3.9060  -10.8370  -26.5800 C   0  0  0  0  0  3  0  0  0  0  0  0
    3.7450  -12.7990  -25.2310 N   0  0  0  0  0  0  0  0  0  0  0  0
    2.8650  -12.5360  -24.2100 C   0  0  0  0  0  0  0  0  0  0  0  0
    3.0820  -12.9590  -23.0770 O   0  0  0  0  0  0  0  0  0  0  0  0
    4.4170  -13.5120  -24.9670 H   0  0  0  0  0  0  0  0  0  0  0  0
    1.6080  -11.8210  -24.4540 C   0  0  0  0  0  0  0  0  0  0  0  0
    0.5840  -12.3710  -25.2230 C   0  0  0  0  0  3  0  0  0  0  0  0
   -0.5730  -11.6230  -25.4430 C   0  0  0  0  0  3  0  0  0  0  0  0
   -0.6790  -10.3450  -24.8830 C   0  0  0  0  0  0  0  0  0  0  0  0
    0.3080   -9.8250  -24.0900 N   0  0  0  0  0  0  0  0  0  0  0  0
    1.4150  -10.5780  -23.8790 C   0  0  0  0  0  3  0  0  0  0  0  0
   -1.9240   -9.5050  -25.1520 C   0  0  0  0  0  0  0  0  0  0  0  0
   -2.9360  -10.2180  -25.7220 F   0  0  0  0  0  0  0  0  0  0  0  0
   -2.4430   -8.9370  -24.0260 F   0  0  0  0  0  0  0  0  0  0  0  0
   -1.6880   -8.4610  -26.0040 F   0  0  0  0  0  0  0  0  0  0  0  0
    4.0550   -8.6490  -27.8280 C   0  0  0  0  0  2  0  0  0  0  0  0
   -0.2330   -4.6660  -26.1250 C   0  0  0  0  0  0  0  0  0  0  0  0
   -0.5170   -5.1530  -24.8380 C   0  0  0  0  0  3  0  0  0  0  0  0
    0.1220   -6.2930  -24.3820 C   0  0  0  0  0  3  0  0  0  0  0  0
    1.0330   -6.9350  -25.2170 C   0  0  0  0  0  3  0  0  0  0  0  0
    1.3150   -6.4510  -26.5250 C   0  0  0  0  0  0  0  0  0  0  0  0
    2.2320   -7.0540  -27.4110 C   0  0  0  0  0  0  0  0  0  0  0  0
    2.9590   -8.1690  -27.0120 N   0  0  0  0  0  0  0  0  0  0  0  0
    2.5010   -6.5360  -28.6200 N   0  0  0  0  0  0  0  0  0  0  0  0
    1.8440   -5.4270  -28.9590 C   0  0  0  0  0  3  0  0  0  0  0  0
    0.9580   -4.7780  -28.2020 N   0  0  0  0  0  0  0  0  0  0  0  0
    0.6760   -5.2890  -26.9910 C   0  0  0  0  0  0  0  0  0  0  0  0
    2.4530   -8.8780  -26.5000 H   0  0  0  0  0  0  0  0  0  0  0  0
   -0.1550   -2.4290  -27.0110 N   0  0  0  0  0  0  0  0  0  0  0  0
   -0.9480   -3.4500  -26.5600 C   0  0  0  0  0  0  0  0  0  0  0  0
   -2.1610   -3.3360  -26.4720 O   0  0  0  0  0  0  0  0  0  0  0  0
   -0.6150   -1.5820  -27.3170 H   0  0  0  0  0  0  0  0  0  0  0  0
    0.8460   -2.5080  -27.1190 H   0  0  0  0  0  0  0  0  0  0  0  0
  1  6  1  0  0  0  0
  2  3  1  0  0  0  0
  2  1  2  0  0  0  0
  3  4  2  0  0  0  0
  4  5  1  0  0  0  0
  5  7  1  0  0  0  0
  6  5  2  0  0  0  0
  7 10  1  0  0  0  0
  7  8  1  0  0  0  0
  8  9  2  0  0  0  0
 11  8  1  0  0  0  0
 11 16  1  0  0  0  0
 12 11  2  0  0  0  0
 13 12  1  0  0  0  0
 13 14  2  0  0  0  0
 14 15  1  0  0  0  0
 15 16  2  0  0  0  0
 17 14  1  0  0  0  0
 17 19  1  0  0  0  0
 18 17  1  0  0  0  0
 20 17  1  0  0  0  0
 21  1  1  0  0  0  0
 21 28  1  0  0  0  0
 22 23  1  0  0  0  0
 23 24  2  0  0  0  0
 25 24  1  0  0  0  0
 26 25  2  0  0  0  0
 27 28  1  0  0  0  0
 27 26  1  0  0  0  0
 28 33  1  0  0  0  0
 29 27  2  0  0  0  0
 30 29  1  0  0  0  0
 30 31  2  0  0  0  0
 31 32  1  0  0  0  0
 32 26  1  0  0  0  0
 32 22  2  0  0  0  0
 34 35  1  0  0  0  0
 35 36  2  0  0  0  0
 35 22  1  0  0  0  0
 37 34  1  0  0  0  0
 38 34  1  0  0  0  0
M  END
>  <minimizedAffinity>
-8.94251919

$$$$
