
 OpenBabel10152419473D

 38 41  0  0  0  0  0  0  0  0999 V2000
    3.4870  -10.7890  -26.5640 C   0  0  0  0  0  0  0  0  0  0  0  0
    3.1300  -11.3020  -27.8140 C   0  0  0  0  0  3  0  0  0  0  0  0
    2.2340  -12.3670  -27.8970 C   0  0  0  0  0  3  0  0  0  0  0  0
    1.6980  -12.9370  -26.7370 C   0  0  0  0  0  3  0  0  0  0  0  0
    2.0690  -12.4650  -25.4780 C   0  0  0  0  0  0  0  0  0  0  0  0
    2.9480  -11.3800  -25.4060 C   0  0  0  0  0  3  0  0  0  0  0  0
    1.5770  -12.9590  -24.2550 N   0  0  0  0  0  0  0  0  0  0  0  0
    0.7760  -12.4040  -23.2870 C   0  0  0  0  0  0  0  0  0  0  0  0
    0.7060  -12.9130  -22.1700 O   0  0  0  0  0  0  0  0  0  0  0  0
    1.8940  -13.8860  -23.9890 H   0  0  0  0  0  0  0  0  0  0  0  0
   -0.0780  -11.2480  -23.5770 C   0  0  0  0  0  0  0  0  0  0  0  0
   -0.5860  -11.0070  -24.8520 C   0  0  0  0  0  3  0  0  0  0  0  0
   -1.3650   -9.8700  -25.0650 C   0  0  0  0  0  3  0  0  0  0  0  0
   -1.6220   -9.0040  -23.9960 C   0  0  0  0  0  0  0  0  0  0  0  0
   -1.1610   -9.2670  -22.7340 N   0  0  0  0  0  0  0  0  0  0  0  0
   -0.4190  -10.3860  -22.5500 C   0  0  0  0  0  3  0  0  0  0  0  0
   -2.4400   -7.7380  -24.2300 C   0  0  0  0  0  0  0  0  0  0  0  0
   -2.0040   -6.6770  -23.4940 F   0  0  0  0  0  0  0  0  0  0  0  0
   -2.4350   -7.3280  -25.5310 F   0  0  0  0  0  0  0  0  0  0  0  0
   -3.7600   -7.8890  -23.9070 F   0  0  0  0  0  0  0  0  0  0  0  0
    4.4540   -9.6340  -26.4320 C   0  0  0  0  0  2  0  0  0  0  0  0
    0.2980   -5.2300  -27.1290 C   0  0  0  0  0  0  0  0  0  0  0  0
    0.5930   -4.8250  -28.4410 C   0  0  0  0  0  3  0  0  0  0  0  0
    1.6490   -5.4130  -29.1170 C   0  0  0  0  0  3  0  0  0  0  0  0
    2.3990   -6.3940  -28.4730 C   0  0  0  0  0  3  0  0  0  0  0  0
    2.1100   -6.7980  -27.1400 C   0  0  0  0  0  0  0  0  0  0  0  0
    2.8290   -7.7900  -26.4410 C   0  0  0  0  0  0  0  0  0  0  0  0
    3.8680   -8.4700  -27.0640 N   0  0  0  0  0  0  0  0  0  0  0  0
    2.4920   -8.1730  -25.1990 N   0  0  0  0  0  0  0  0  0  0  0  0
    1.4500   -7.5560  -24.6410 C   0  0  0  0  0  3  0  0  0  0  0  0
    0.7040   -6.6080  -25.2100 N   0  0  0  0  0  0  0  0  0  0  0  0
    1.0340   -6.2120  -26.4520 C   0  0  0  0  0  0  0  0  0  0  0  0
    4.4980   -7.9150  -27.6260 H   0  0  0  0  0  0  0  0  0  0  0  0
   -0.5360   -3.9320  -25.2810 N   0  0  0  0  0  0  0  0  0  0  0  0
   -0.8360   -4.5660  -26.4560 C   0  0  0  0  0  0  0  0  0  0  0  0
   -1.9780   -4.6230  -26.8860 O   0  0  0  0  0  0  0  0  0  0  0  0
   -1.2920   -3.4660  -24.7960 H   0  0  0  0  0  0  0  0  0  0  0  0
    0.4030   -3.8470  -24.9180 H   0  0  0  0  0  0  0  0  0  0  0  0
  1 21  1  0  0  0  0
  1  6  1  0  0  0  0
  2  1  2  0  0  0  0
  3  2  1  0  0  0  0
  3  4  2  0  0  0  0
  4  5  1  0  0  0  0
  5  6  2  0  0  0  0
  5  7  1  0  0  0  0
  7 10  1  0  0  0  0
  7  8  1  0  0  0  0
  8  9  2  0  0  0  0
 11  8  1  0  0  0  0
 11 16  1  0  0  0  0
 12 11  2  0  0  0  0
 13 12  1  0  0  0  0
 13 14  2  0  0  0  0
 14 15  1  0  0  0  0
 15 16  2  0  0  0  0
 17 14  1  0  0  0  0
 17 20  1  0  0  0  0
 17 18  1  0  0  0  0
 19 17  1  0  0  0  0
 22 35  1  0  0  0  0
 22 32  1  0  0  0  0
 23 22  2  0  0  0  0
 24 25  2  0  0  0  0
 24 23  1  0  0  0  0
 25 26  1  0  0  0  0
 26 32  2  0  0  0  0
 26 27  1  0  0  0  0
 27 29  2  0  0  0  0
 28 27  1  0  0  0  0
 28 21  1  0  0  0  0
 29 30  1  0  0  0  0
 31 30  2  0  0  0  0
 32 31  1  0  0  0  0
 33 28  1  0  0  0  0
 34 38  1  0  0  0  0
 34 37  1  0  0  0  0
 35 34  1  0  0  0  0
 36 35  2  0  0  0  0
M  END
>  <minimizedAffinity>
-8.43973541

$$$$
