REMARK  Name = 
REMARK  6 active torsions:
REMARK  status: ('A' for Active; 'I' for Inactive)
REMARK    1  A    between atoms: C_2  and  C_4
REMARK    2  A    between atoms: N_10  and  C_11
REMARK    3  A    between atoms: C_11  and  C_12
REMARK    4  A    between atoms: C_16  and  N_17
REMARK    5  A    between atoms: C_18  and  C_20
REMARK    6  A    between atoms: C_23  and  C_24
REMARK                            x       y       z     vdW  Elec       q    Type
REMARK                         _______ _______ _______ _____ _____    ______ ____
ROOT
ATOM      1  C   UNL     1       2.468  -9.141  -0.788  0.00  0.00    -0.029 A 
ATOM      2  C   UNL     1       2.534 -10.468  -0.357  0.00  0.00    +0.005 A 
ATOM      3  C   UNL     1       3.698 -11.208  -0.562  0.00  0.00    +0.002 A 
ATOM      4  C   UNL     1       4.799 -10.635  -1.208  0.00  0.00    +0.023 A 
ATOM      5  C   UNL     1       4.742  -9.323  -1.679  0.00  0.00    +0.034 A 
ATOM      6  C   UNL     1       3.579  -8.582  -1.447  0.00  0.00    +0.028 A 
ENDROOT
BRANCH   5   7
ATOM      7  N   UNL     1       5.797  -8.653  -2.327  0.00  0.00    -0.281 N 
ATOM      8  C   UNL     1       6.970  -9.097  -2.887  0.00  0.00    +0.250 C 
ATOM      9  O   UNL     1       7.875  -8.306  -3.145  0.00  0.00    -0.270 OA
ATOM     10  H   UNL     1       5.727  -7.641  -2.364  0.00  0.00    +0.155 HD
BRANCH   8  11
ATOM     11  C   UNL     1       7.147 -10.501  -3.270  0.00  0.00    +0.055 A 
ATOM     12  C   UNL     1       6.240 -11.160  -4.098  0.00  0.00    +0.016 A 
ATOM     13  C   UNL     1       6.452 -12.506  -4.396  0.00  0.00    +0.033 A 
ATOM     14  C   UNL     1       7.569 -13.159  -3.863  0.00  0.00    +0.144 A 
ATOM     15  N   UNL     1       8.483 -12.498  -3.088  0.00  0.00    -0.250 NA
ATOM     16  C   UNL     1       8.263 -11.187  -2.825  0.00  0.00    +0.124 A 
BRANCH  14  17
ATOM     17  C   UNL     1       7.785 -14.641  -4.152  0.00  0.00    +0.434 C 
ATOM     18  F   UNL     1       8.808 -14.872  -5.022  0.00  0.00    -0.164 F 
ATOM     19  F   UNL     1       8.062 -15.372  -3.034  0.00  0.00    -0.164 F 
ATOM     20  F   UNL     1       6.689 -15.240  -4.710  0.00  0.00    -0.164 F 
ENDBRANCH  14  17
ENDBRANCH   8  11
ENDBRANCH   5   7
BRANCH   1  21
ATOM     21  C   UNL     1       1.224  -8.306  -0.584  0.00  0.00    +0.138 C 
BRANCH  21  28
ATOM     22  C   UNL     1       1.077  -2.379   0.830  0.00  0.00    +0.063 A 
ATOM     23  C   UNL     1       2.220  -2.296   1.643  0.00  0.00    +0.015 A 
ATOM     24  C   UNL     1       2.945  -3.442   1.921  0.00  0.00    +0.002 A 
ATOM     25  C   UNL     1       2.519  -4.656   1.388  0.00  0.00    +0.013 A 
ATOM     26  C   UNL     1       1.356  -4.745   0.574  0.00  0.00    +0.041 A 
ATOM     27  C   UNL     1       0.881  -5.943   0.001  0.00  0.00    +0.130 A 
ATOM     28  N   UNL     1       1.581  -7.130   0.183  0.00  0.00    -0.324 N 
ATOM     29  N   UNL     1      -0.196  -5.973  -0.800  0.00  0.00    -0.220 NA
ATOM     30  C   UNL     1      -0.816  -4.813  -1.018  0.00  0.00    +0.223 A 
ATOM     31  N   UNL     1      -0.454  -3.627  -0.527  0.00  0.00    -0.235 NA
ATOM     32  C   UNL     1       0.620  -3.584   0.280  0.00  0.00    +0.088 A 
ATOM     33  H   UNL     1       1.937  -7.306   1.112  0.00  0.00    +0.148 HD
BRANCH  22  35
ATOM     34  N   UNL     1       1.048  -0.149  -0.076  0.00  0.00    -0.325 N 
ATOM     35  C   UNL     1       0.341  -1.126   0.571  0.00  0.00    +0.244 C 
ATOM     36  O   UNL     1      -0.805  -0.947   0.956  0.00  0.00    -0.270 OA
ATOM     37  H   UNL     1       0.571   0.722  -0.269  0.00  0.00    +0.145 HD
ATOM     38  H   UNL     1       1.986  -0.281  -0.428  0.00  0.00    +0.145 HD
ENDBRANCH  22  35
ENDBRANCH  21  28
ENDBRANCH   1  21
TORSDOF 6
