
 OpenBabel10152419293D

 38 42  0  0  0  0  0  0  0  0999 V2000
    8.0400  -14.0350   13.2630 C   0  0  0  0  0  0  0  0  0  0  0  0
    8.9160  -15.0210   12.8040 C   0  0  0  0  0  3  0  0  0  0  0  0
   10.2820  -14.7610   12.7310 C   0  0  0  0  0  3  0  0  0  0  0  0
   10.7880  -13.5100   13.1040 C   0  0  0  0  0  3  0  0  0  0  0  0
    9.9310  -12.4930   13.5210 C   0  0  0  0  0  0  0  0  0  0  0  0
    8.5570  -12.7720   13.6020 C   0  0  0  0  0  3  0  0  0  0  0  0
   10.3270  -11.2050   13.9290 N   0  0  0  0  0  0  0  0  0  0  0  0
   10.1590   -9.9440   13.4110 C   0  0  0  0  0  0  0  0  0  0  0  0
   10.7840   -9.0010   13.8960 O   0  0  0  0  0  0  0  0  0  0  0  0
   10.9090  -11.1610   14.7580 H   0  0  0  0  0  0  0  0  0  0  0  0
    9.2240   -9.6550   12.3160 C   0  0  0  0  0  0  0  0  0  0  0  0
    7.8550   -9.7360   12.5780 C   0  0  0  0  0  3  0  0  0  0  0  0
    6.9280   -9.4980   11.5580 C   0  0  0  0  0  3  0  0  0  0  0  0
    7.3930   -9.2010   10.2610 C   0  0  0  0  0  0  0  0  0  0  0  0
    6.7490   -8.9180    9.0260 C   0  0  0  0  0  3  0  0  0  0  0  0
    7.7270   -8.7170    8.0780 C   0  0  0  0  0  3  0  0  0  0  0  0
    8.9420   -8.8700    8.6910 N   0  0  0  0  0  0  0  0  0  0  0  0
    8.7690   -9.1600   10.0250 C   0  0  0  0  0  0  0  0  0  0  0  0
    9.7170   -9.3920   11.0300 C   0  0  0  0  0  3  0  0  0  0  0  0
    9.8390   -8.7810    8.2330 H   0  0  0  0  0  0  0  0  0  0  0  0
    6.5630  -14.3200   13.3880 C   0  0  0  0  0  2  0  0  0  0  0  0
    5.0280  -10.8550    8.6110 C   0  0  0  0  0  0  0  0  0  0  0  0
    3.7040  -10.5490    8.9580 C   0  0  0  0  0  3  0  0  0  0  0  0
    3.1940  -11.0020   10.1630 C   0  0  0  0  0  3  0  0  0  0  0  0
    4.0120  -11.7540   11.0020 C   0  0  0  0  0  3  0  0  0  0  0  0
    5.3580  -12.0550   10.6550 C   0  0  0  0  0  0  0  0  0  0  0  0
    6.2330  -12.8140   11.4620 C   0  0  0  0  0  0  0  0  0  0  0  0
    5.7910  -13.3210   12.6790 N   0  0  0  0  0  0  0  0  0  0  0  0
    7.4830  -13.1080   11.0700 N   0  0  0  0  0  0  0  0  0  0  0  0
    7.8800  -12.6170    9.8950 C   0  0  0  0  0  3  0  0  0  0  0  0
    7.1490  -11.8650    9.0710 N   0  0  0  0  0  0  0  0  0  0  0  0
    5.8800  -11.6020    9.4320 C   0  0  0  0  0  0  0  0  0  0  0  0
    5.2760  -12.6720   13.2600 H   0  0  0  0  0  0  0  0  0  0  0  0
    4.9240   -9.2290    6.8460 N   0  0  0  0  0  0  0  0  0  0  0  0
    5.4990  -10.3840    7.2980 C   0  0  0  0  0  0  0  0  0  0  0  0
    6.2970  -11.0240    6.6290 O   0  0  0  0  0  0  0  0  0  0  0  0
    5.2200   -8.8840    5.9440 H   0  0  0  0  0  0  0  0  0  0  0  0
    4.2710   -8.6840    7.3900 H   0  0  0  0  0  0  0  0  0  0  0  0
  1 21  1  0  0  0  0
  1  6  1  0  0  0  0
  2  1  2  0  0  0  0
  3  2  1  0  0  0  0
  3  4  2  0  0  0  0
  4  5  1  0  0  0  0
  5  6  2  0  0  0  0
  5  7  1  0  0  0  0
  7 10  1  0  0  0  0
  8  9  2  0  0  0  0
  8  7  1  0  0  0  0
 11 12  1  0  0  0  0
 11  8  1  0  0  0  0
 13 12  2  0  0  0  0
 14 13  1  0  0  0  0
 15 14  1  0  0  0  0
 16 17  1  0  0  0  0
 16 15  2  0  0  0  0
 17 18  1  0  0  0  0
 18 14  2  0  0  0  0
 18 19  1  0  0  0  0
 19 11  2  0  0  0  0
 20 17  1  0  0  0  0
 22 23  2  0  0  0  0
 22 32  1  0  0  0  0
 23 24  1  0  0  0  0
 24 25  2  0  0  0  0
 26 25  1  0  0  0  0
 26 27  1  0  0  0  0
 27 28  1  0  0  0  0
 28 33  1  0  0  0  0
 28 21  1  0  0  0  0
 29 27  2  0  0  0  0
 30 29  1  0  0  0  0
 31 32  1  0  0  0  0
 31 30  2  0  0  0  0
 32 26  2  0  0  0  0
 34 35  1  0  0  0  0
 34 38  1  0  0  0  0
 35 22  1  0  0  0  0
 36 35  2  0  0  0  0
 37 34  1  0  0  0  0
M  END
>  <minimizedAffinity>
19.9648247

$$$$
