REMARK  Name = 
REMARK  5 active torsions:
REMARK  status: ('A' for Active; 'I' for Inactive)
REMARK    1  A    between atoms: C_2  and  C_4
REMARK    2  A    between atoms: N_10  and  C_11
REMARK    3  A    between atoms: C_11  and  C_12
REMARK    4  A    between atoms: C_16  and  N_17
REMARK    5  A    between atoms: C_18  and  C_20
REMARK                            x       y       z     vdW  Elec       q    Type
REMARK                         _______ _______ _______ _____ _____    ______ ____
ROOT
ATOM      1  C   UNL     1       2.041   1.634   9.086  0.00  0.00    -0.029 A 
ATOM      2  C   UNL     1       1.750   0.277   9.248  0.00  0.00    +0.005 A 
ATOM      3  C   UNL     1       2.473  -0.487  10.160  0.00  0.00    +0.002 A 
ATOM      4  C   UNL     1       3.503   0.091  10.912  0.00  0.00    +0.023 A 
ATOM      5  C   UNL     1       3.845   1.430  10.736  0.00  0.00    +0.034 A 
ATOM      6  C   UNL     1       3.100   2.193   9.822  0.00  0.00    +0.028 A 
ENDROOT
BRANCH   5   7
ATOM      7  N   UNL     1       4.851   2.117  11.442  0.00  0.00    -0.281 N 
ATOM      8  C   UNL     1       5.805   1.741  12.356  0.00  0.00    +0.248 C 
ATOM      9  O   UNL     1       6.444   2.605  12.956  0.00  0.00    -0.270 OA
ATOM     10  H   UNL     1       4.878   3.122  11.312  0.00  0.00    +0.155 HD
BRANCH   8  11
ATOM     11  C   UNL     1       6.133   0.335  12.626  0.00  0.00    +0.039 A 
ATOM     12  C   UNL     1       5.926  -0.155  13.917  0.00  0.00    +0.014 A 
ATOM     13  C   UNL     1       6.252  -1.479  14.228  0.00  0.00    +0.011 A 
ATOM     14  C   UNL     1       6.812  -2.302  13.230  0.00  0.00    -0.000 A 
ATOM     15  C   UNL     1       7.251  -3.654  13.202  0.00  0.00    +0.027 A 
ATOM     16  C   UNL     1       7.728  -3.915  11.938  0.00  0.00    +0.083 A 
ATOM     17  N   UNL     1       7.598  -2.771  11.196  0.00  0.00    -0.361 N 
ATOM     18  C   UNL     1       7.036  -1.772  11.958  0.00  0.00    +0.047 A 
ATOM     19  C   UNL     1       6.716  -0.450  11.621  0.00  0.00    +0.039 A 
ATOM     20  H   UNL     1       7.872  -2.671  10.228  0.00  0.00    +0.165 HD
ENDBRANCH   8  11
ENDBRANCH   5   7
BRANCH   1  21
ATOM     21  C   UNL     1       1.234   2.482   8.133  0.00  0.00    +0.138 C 
BRANCH  21  28
ATOM     22  C   UNL     1       1.219   1.348   2.141  0.00  0.00    +0.063 A 
ATOM     23  C   UNL     1       2.270   2.186   1.740  0.00  0.00    +0.015 A 
ATOM     24  C   UNL     1       2.975   2.898   2.696  0.00  0.00    +0.002 A 
ATOM     25  C   UNL     1       2.620   2.764   4.036  0.00  0.00    +0.013 A 
ATOM     26  C   UNL     1       1.561   1.906   4.443  0.00  0.00    +0.041 A 
ATOM     27  C   UNL     1       1.154   1.732   5.783  0.00  0.00    +0.130 A 
ATOM     28  N   UNL     1       1.800   2.426   6.801  0.00  0.00    -0.324 N 
ATOM     29  N   UNL     1       0.119   0.943   6.113  0.00  0.00    -0.220 NA
ATOM     30  C   UNL     1      -0.489   0.295   5.118  0.00  0.00    +0.223 A 
ATOM     31  N   UNL     1      -0.167   0.362   3.825  0.00  0.00    -0.235 NA
ATOM     32  C   UNL     1       0.839   1.184   3.478  0.00  0.00    +0.088 A 
ATOM     33  H   UNL     1       2.810   2.427   6.754  0.00  0.00    +0.148 HD
BRANCH  22  35
ATOM     34  N   UNL     1       1.135  -0.393   0.489  0.00  0.00    -0.325 N 
ATOM     35  C   UNL     1       0.478   0.652   1.076  0.00  0.00    +0.244 C 
ATOM     36  O   UNL     1      -0.620   1.032   0.697  0.00  0.00    -0.270 OA
ATOM     37  H   UNL     1       0.656  -0.886  -0.252  0.00  0.00    +0.145 HD
ATOM     38  H   UNL     1       2.038  -0.725   0.796  0.00  0.00    +0.145 HD
ENDBRANCH  22  35
ENDBRANCH  21  28
ENDBRANCH   1  21
TORSDOF 5
