
 OpenBabel10152419503D

 40 43  0  0  1  0  0  0  0  0999 V2000
   -0.0810  -10.5130  -23.5690 C   0  0  0  0  0  0  0  0  0  0  0  0
   -0.8340  -11.2990  -22.6880 C   0  0  0  0  0  3  0  0  0  0  0  0
   -1.6820  -10.6910  -21.7690 C   0  0  0  0  0  3  0  0  0  0  0  0
   -1.7550   -9.2980  -21.6930 C   0  0  0  0  0  3  0  0  0  0  0  0
   -0.9130   -8.4930  -22.4560 C   0  0  0  0  0  0  0  0  0  0  0  0
   -0.0680   -9.1160  -23.3840 C   0  0  0  0  0  3  0  0  0  0  0  0
   -0.8980   -7.0840  -22.4500 N   0  0  0  0  0  0  0  0  0  0  0  0
   -0.7220   -6.1340  -23.4280 C   0  0  0  0  0  0  0  0  0  0  0  0
   -0.5480   -4.9570  -23.1120 O   0  0  0  0  0  0  0  0  0  0  0  0
   -1.0020   -6.6410  -21.5450 H   0  0  0  0  0  0  0  0  0  0  0  0
   -0.7250   -6.4660  -24.8540 C   0  0  0  0  0  0  0  0  0  0  0  0
    0.2210   -5.8610  -25.6920 C   0  0  0  0  0  3  0  0  0  0  0  0
    0.2780   -6.2080  -27.0510 C   0  0  0  0  0  0  0  0  0  0  0  0
   -0.6330   -7.1570  -27.5490 C   0  0  0  0  0  3  0  0  0  0  0  0
   -1.6020   -7.7230  -26.7160 C   0  0  0  0  0  3  0  0  0  0  0  0
   -1.6590   -7.3580  -25.3750 C   0  0  0  0  0  0  0  0  0  0  0  0
   -2.5950   -7.9130  -24.5920 F   0  0  0  0  0  0  0  0  0  0  0  0
    1.2880   -5.5460  -27.9610 C   0  0  0  0  0  0  0  0  0  0  0  0
    0.7590   -4.4840  -28.6260 F   0  0  0  0  0  0  0  0  0  0  0  0
    2.3720   -5.0730  -27.2910 F   0  0  0  0  0  0  0  0  0  0  0  0
    1.7760   -6.3820  -28.9190 F   0  0  0  0  0  0  0  0  0  0  0  0
   -0.0190  -10.5060  -26.0820 C   0  0  0  0  0  1  0  0  0  0  0  0
    0.5790  -11.1110  -24.8050 C   0  0  1  0  0  3  0  0  0  0  0  0
    2.0530  -10.9800  -24.8440 N   0  0  0  0  0  0  0  0  0  0  0  0
    2.5160  -11.5470  -24.1380 H   0  0  0  0  0  0  0  0  0  0  0  0
    2.8060  -11.0820  -26.0030 C   0  0  0  0  0  0  0  0  0  0  0  0
    2.8300  -12.3330  -26.4880 N   0  0  0  0  0  0  0  0  0  0  0  0
    3.3210  -12.4780  -27.7160 C   0  0  0  0  0  3  0  0  0  0  0  0
    3.7650  -11.4970  -28.5100 N   0  0  0  0  0  0  0  0  0  0  0  0
    3.7990  -10.2420  -28.0050 C   0  0  0  0  0  0  0  0  0  0  0  0
    4.2190   -9.1310  -28.7690 C   0  0  0  0  0  0  0  0  0  0  0  0
    4.3070   -7.8440  -28.2060 C   0  0  0  0  0  3  0  0  0  0  0  0
    4.0010   -7.6370  -26.8710 C   0  0  0  0  0  3  0  0  0  0  0  0
    3.5480   -8.7090  -26.1140 C   0  0  0  0  0  3  0  0  0  0  0  0
    3.3880   -9.9960  -26.6830 C   0  0  0  0  0  0  0  0  0  0  0  0
    4.5620   -9.2220  -30.2230 C   0  0  0  0  0  0  0  0  0  0  0  0
    4.7180  -10.4570  -30.7790 N   0  0  0  0  0  0  0  0  0  0  0  0
    4.7000   -8.2190  -30.9130 O   0  0  0  0  0  0  0  0  0  0  0  0
    4.9510  -10.5280  -31.7590 H   0  0  0  0  0  0  0  0  0  0  0  0
    4.5830  -11.2980  -30.2250 H   0  0  0  0  0  0  0  0  0  0  0  0
  1  6  2  0  0  0  0
  1  2  1  0  0  0  0
  2  3  2  0  0  0  0
  3  4  1  0  0  0  0
  5  7  1  0  0  0  0
  5  4  2  0  0  0  0
  6  5  1  0  0  0  0
  7 10  1  0  0  0  0
  8  9  2  0  0  0  0
  8  7  1  0  0  0  0
 11  8  1  0  0  0  0
 12 11  2  0  0  0  0
 13 12  1  0  0  0  0
 14 13  2  0  0  0  0
 14 15  1  0  0  0  0
 15 16  2  0  0  0  0
 16 11  1  0  0  0  0
 16 17  1  0  0  0  0
 18 20  1  0  0  0  0
 18 13  1  0  0  0  0
 19 18  1  0  0  0  0
 21 18  1  0  0  0  0
 23 22  1  6  0  0  0
 23  1  1  0  0  0  0
 24 23  1  0  0  0  0
 24 25  1  0  0  0  0
 26 24  1  0  0  0  0
 27 26  1  0  0  0  0
 28 27  2  0  0  0  0
 29 30  2  0  0  0  0
 29 28  1  0  0  0  0
 30 35  1  0  0  0  0
 31 32  2  0  0  0  0
 31 30  1  0  0  0  0
 32 33  1  0  0  0  0
 33 34  2  0  0  0  0
 35 34  1  0  0  0  0
 35 26  2  0  0  0  0
 36 31  1  0  0  0  0
 37 40  1  0  0  0  0
 37 36  1  0  0  0  0
 38 36  2  0  0  0  0
 39 37  1  0  0  0  0
M  END
>  <minimizedAffinity>
-8.08064842

$$$$
