
 OpenBabel10152419503D

 40 43  0  0  1  0  0  0  0  0999 V2000
    2.7340   -7.6230  -27.4230 C   0  0  0  0  0  0  0  0  0  0  0  0
    3.1590   -7.4090  -28.7400 C   0  0  0  0  0  3  0  0  0  0  0  0
    4.0400   -8.3040  -29.3380 C   0  0  0  0  0  3  0  0  0  0  0  0
    4.5340   -9.3930  -28.6160 C   0  0  0  0  0  3  0  0  0  0  0  0
    4.2410   -9.5500  -27.2630 C   0  0  0  0  0  0  0  0  0  0  0  0
    3.3470   -8.6460  -26.6730 C   0  0  0  0  0  3  0  0  0  0  0  0
    4.6930  -10.6030  -26.4430 N   0  0  0  0  0  0  0  0  0  0  0  0
    4.0590  -11.4940  -25.6110 C   0  0  0  0  0  0  0  0  0  0  0  0
    4.7220  -12.1890  -24.8420 O   0  0  0  0  0  0  0  0  0  0  0  0
    5.6960  -10.7400  -26.4060 H   0  0  0  0  0  0  0  0  0  0  0  0
    2.6030  -11.6520  -25.5930 C   0  0  0  0  0  0  0  0  0  0  0  0
    1.9240  -11.5350  -24.3730 C   0  0  0  0  0  3  0  0  0  0  0  0
    0.5230  -11.6210  -24.3390 C   0  0  0  0  0  0  0  0  0  0  0  0
   -0.1740  -11.8390  -25.5410 C   0  0  0  0  0  3  0  0  0  0  0  0
    0.5140  -11.9980  -26.7480 C   0  0  0  0  0  3  0  0  0  0  0  0
    1.9030  -11.9270  -26.7650 C   0  0  0  0  0  0  0  0  0  0  0  0
    2.5440  -12.0830  -27.9320 F   0  0  0  0  0  0  0  0  0  0  0  0
   -0.2110  -11.5090  -23.0220 C   0  0  0  0  0  0  0  0  0  0  0  0
    0.2420  -12.4080  -22.1060 F   0  0  0  0  0  0  0  0  0  0  0  0
   -0.0820  -10.2840  -22.4470 F   0  0  0  0  0  0  0  0  0  0  0  0
   -1.5500  -11.7310  -23.1340 F   0  0  0  0  0  0  0  0  0  0  0  0
    1.4920   -5.4390  -27.3300 C   0  0  0  0  0  1  0  0  0  0  0  0
    1.5250   -6.8950  -26.8480 C   0  0  1  0  0  3  0  0  0  0  0  0
    0.2230   -7.5370  -27.1360 N   0  0  0  0  0  0  0  0  0  0  0  0
    0.3150   -8.3680  -27.7170 H   0  0  0  0  0  0  0  0  0  0  0  0
   -0.7270   -7.8230  -26.1680 C   0  0  0  0  0  0  0  0  0  0  0  0
   -1.4250   -8.9330  -26.4500 N   0  0  0  0  0  0  0  0  0  0  0  0
   -2.1840   -9.4150  -25.4690 C   0  0  0  0  0  3  0  0  0  0  0  0
   -2.2920   -8.9110  -24.2340 N   0  0  0  0  0  0  0  0  0  0  0  0
   -1.6380   -7.7590  -23.9610 C   0  0  0  0  0  0  0  0  0  0  0  0
   -1.6590   -7.1620  -22.6820 C   0  0  0  0  0  0  0  0  0  0  0  0
   -1.0230   -5.9290  -22.4370 C   0  0  0  0  0  3  0  0  0  0  0  0
   -0.3720   -5.2580  -23.4580 C   0  0  0  0  0  3  0  0  0  0  0  0
   -0.3050   -5.8480  -24.7130 C   0  0  0  0  0  3  0  0  0  0  0  0
   -0.8810   -7.1190  -24.9600 C   0  0  0  0  0  0  0  0  0  0  0  0
   -2.3150   -7.7940  -21.4960 C   0  0  0  0  0  0  0  0  0  0  0  0
   -3.6520   -8.0530  -21.5510 N   0  0  0  0  0  0  0  0  0  0  0  0
   -1.6780   -8.0850  -20.4900 O   0  0  0  0  0  0  0  0  0  0  0  0
   -4.1040   -8.4780  -20.7550 H   0  0  0  0  0  0  0  0  0  0  0  0
   -4.1890   -7.8400  -22.3880 H   0  0  0  0  0  0  0  0  0  0  0  0
  1 23  1  0  0  0  0
  1  6  1  0  0  0  0
  2  1  2  0  0  0  0
  3  2  1  0  0  0  0
  3  4  2  0  0  0  0
  4  5  1  0  0  0  0
  5  6  2  0  0  0  0
  5  7  1  0  0  0  0
  7 10  1  0  0  0  0
  7  8  1  0  0  0  0
  8 11  1  0  0  0  0
  8  9  2  0  0  0  0
 11 12  1  0  0  0  0
 12 13  2  0  0  0  0
 13 18  1  0  0  0  0
 14 13  1  0  0  0  0
 15 14  2  0  0  0  0
 16 15  1  0  0  0  0
 16 11  2  0  0  0  0
 17 16  1  0  0  0  0
 18 20  1  0  0  0  0
 18 19  1  0  0  0  0
 21 18  1  0  0  0  0
 23 22  1  6  0  0  0
 24 23  1  0  0  0  0
 24 26  1  0  0  0  0
 25 24  1  0  0  0  0
 26 35  1  0  0  0  0
 27 26  2  0  0  0  0
 27 28  1  0  0  0  0
 28 29  2  0  0  0  0
 29 30  1  0  0  0  0
 30 31  1  0  0  0  0
 31 32  2  0  0  0  0
 31 36  1  0  0  0  0
 33 32  1  0  0  0  0
 34 33  2  0  0  0  0
 35 34  1  0  0  0  0
 35 30  2  0  0  0  0
 36 38  2  0  0  0  0
 37 36  1  0  0  0  0
 37 39  1  0  0  0  0
 40 37  1  0  0  0  0
M  END
>  <minimizedAffinity>
-8.52022934

$$$$
