
 OpenBabel10152419503D

 40 43  0  0  1  0  0  0  0  0999 V2000
    1.8810  -11.6240  -25.4010 C   0  0  0  0  0  0  0  0  0  0  0  0
    1.6040  -12.4030  -26.5310 C   0  0  0  0  0  3  0  0  0  0  0  0
    2.1970  -12.0930  -27.7490 C   0  0  0  0  0  3  0  0  0  0  0  0
    3.0380  -10.9830  -27.8600 C   0  0  0  0  0  3  0  0  0  0  0  0
    3.2180  -10.1100  -26.7900 C   0  0  0  0  0  0  0  0  0  0  0  0
    2.6200  -10.4360  -25.5650 C   0  0  0  0  0  3  0  0  0  0  0  0
    4.0330   -8.9600  -26.7970 N   0  0  0  0  0  0  0  0  0  0  0  0
    3.7820   -7.6220  -26.9870 C   0  0  0  0  0  0  0  0  0  0  0  0
    4.7200   -6.8420  -27.1480 O   0  0  0  0  0  0  0  0  0  0  0  0
    5.0260   -9.1170  -26.6740 H   0  0  0  0  0  0  0  0  0  0  0  0
    2.4250   -7.0740  -27.0130 C   0  0  0  0  0  0  0  0  0  0  0  0
    1.7770   -6.8130  -25.7980 C   0  0  0  0  0  3  0  0  0  0  0  0
    0.4990   -6.2320  -25.7960 C   0  0  0  0  0  0  0  0  0  0  0  0
   -0.1150   -5.9330  -27.0260 C   0  0  0  0  0  3  0  0  0  0  0  0
    0.5200   -6.2380  -28.2340 C   0  0  0  0  0  3  0  0  0  0  0  0
    1.7790   -6.8290  -28.2220 C   0  0  0  0  0  0  0  0  0  0  0  0
    2.3710   -7.1140  -29.3910 F   0  0  0  0  0  0  0  0  0  0  0  0
   -0.2080   -5.9610  -24.4860 C   0  0  0  0  0  0  0  0  0  0  0  0
    0.0740   -6.9050  -23.5480 F   0  0  0  0  0  0  0  0  0  0  0  0
    0.1350   -4.7660  -23.9380 F   0  0  0  0  0  0  0  0  0  0  0  0
   -1.5650   -5.9440  -24.6040 F   0  0  0  0  0  0  0  0  0  0  0  0
    2.7050  -12.9490  -23.4300 C   0  0  0  0  0  1  0  0  0  0  0  0
    1.5510  -12.1120  -23.9960 C   0  0  1  0  0  3  0  0  0  0  0  0
    1.2050  -11.0410  -23.0350 N   0  0  0  0  0  0  0  0  0  0  0  0
    1.6680  -10.1600  -23.2450 H   0  0  0  0  0  0  0  0  0  0  0  0
   -0.0930  -10.7350  -22.6560 C   0  0  0  0  0  0  0  0  0  0  0  0
   -0.3630  -11.1220  -21.4000 N   0  0  0  0  0  0  0  0  0  0  0  0
   -1.4930  -10.6580  -20.8720 C   0  0  0  0  0  3  0  0  0  0  0  0
   -2.3610   -9.8310  -21.4660 N   0  0  0  0  0  0  0  0  0  0  0  0
   -2.1260   -9.4850  -22.7530 C   0  0  0  0  0  0  0  0  0  0  0  0
   -2.9600   -8.5930  -23.4610 C   0  0  0  0  0  0  0  0  0  0  0  0
   -2.7330   -8.2960  -24.8180 C   0  0  0  0  0  3  0  0  0  0  0  0
   -1.6870   -8.8920  -25.5040 C   0  0  0  0  0  3  0  0  0  0  0  0
   -0.8320   -9.7400  -24.8150 C   0  0  0  0  0  3  0  0  0  0  0  0
   -1.0050   -9.9970  -23.4320 C   0  0  0  0  0  0  0  0  0  0  0  0
   -4.1120   -7.8760  -22.8290 C   0  0  0  0  0  0  0  0  0  0  0  0
   -4.0910   -7.6690  -21.4810 N   0  0  0  0  0  0  0  0  0  0  0  0
   -5.0580   -7.4720  -23.4940 O   0  0  0  0  0  0  0  0  0  0  0  0
   -4.8640   -7.1870  -21.0470 H   0  0  0  0  0  0  0  0  0  0  0  0
   -3.3010   -7.9760  -20.9210 H   0  0  0  0  0  0  0  0  0  0  0  0
  1 23  1  0  0  0  0
  2  1  2  0  0  0  0
  3  2  1  0  0  0  0
  4  3  2  0  0  0  0
  4  5  1  0  0  0  0
  5  6  2  0  0  0  0
  6  1  1  0  0  0  0
  7  5  1  0  0  0  0
  7 10  1  0  0  0  0
  8  7  1  0  0  0  0
  9  8  2  0  0  0  0
 11  8  1  0  0  0  0
 11 12  1  0  0  0  0
 12 13  2  0  0  0  0
 13 18  1  0  0  0  0
 14 13  1  0  0  0  0
 15 16  1  0  0  0  0
 15 14  2  0  0  0  0
 16 11  2  0  0  0  0
 17 16  1  0  0  0  0
 18 20  1  0  0  0  0
 18 19  1  0  0  0  0
 21 18  1  0  0  0  0
 23 22  1  1  0  0  0
 23 24  1  0  0  0  0
 24 26  1  0  0  0  0
 25 24  1  0  0  0  0
 26 27  1  0  0  0  0
 27 28  2  0  0  0  0
 29 28  1  0  0  0  0
 30 29  2  0  0  0  0
 31 36  1  0  0  0  0
 31 30  1  0  0  0  0
 32 31  2  0  0  0  0
 33 32  1  0  0  0  0
 33 34  2  0  0  0  0
 34 35  1  0  0  0  0
 35 30  1  0  0  0  0
 35 26  2  0  0  0  0
 36 37  1  0  0  0  0
 37 39  1  0  0  0  0
 37 40  1  0  0  0  0
 38 36  2  0  0  0  0
M  END
>  <minimizedAffinity>
-7.87807178

$$$$
