
 OpenBabel10152419503D

 40 43  0  0  1  0  0  0  0  0999 V2000
    0.8250   -6.6240  -25.0990 C   0  0  0  0  0  0  0  0  0  0  0  0
    0.3510   -5.8690  -26.1790 C   0  0  0  0  0  3  0  0  0  0  0  0
    0.8830   -6.0640  -27.4490 C   0  0  0  0  0  3  0  0  0  0  0  0
    1.9160   -6.9840  -27.6440 C   0  0  0  0  0  3  0  0  0  0  0  0
    2.5030   -7.6440  -26.5670 C   0  0  0  0  0  0  0  0  0  0  0  0
    1.9540   -7.4430  -25.2930 C   0  0  0  0  0  3  0  0  0  0  0  0
    3.5530   -8.5800  -26.6520 N   0  0  0  0  0  0  0  0  0  0  0  0
    3.6210   -9.9440  -26.4910 C   0  0  0  0  0  0  0  0  0  0  0  0
    4.7190  -10.4950  -26.4180 O   0  0  0  0  0  0  0  0  0  0  0  0
    4.4750   -8.2010  -26.8340 H   0  0  0  0  0  0  0  0  0  0  0  0
    2.4250  -10.7830  -26.3960 C   0  0  0  0  0  0  0  0  0  0  0  0
    1.1650  -10.1710  -26.4230 C   0  0  0  0  0  3  0  0  0  0  0  0
    0.0030  -10.9580  -26.3940 C   0  0  0  0  0  0  0  0  0  0  0  0
    0.1300  -12.3570  -26.3250 C   0  0  0  0  0  3  0  0  0  0  0  0
    1.3910  -12.9570  -26.2540 C   0  0  0  0  0  3  0  0  0  0  0  0
    2.5340  -12.1650  -26.2660 C   0  0  0  0  0  0  0  0  0  0  0  0
    3.7340  -12.7600  -26.1970 F   0  0  0  0  0  0  0  0  0  0  0  0
   -1.3580  -10.3000  -26.4090 C   0  0  0  0  0  0  0  0  0  0  0  0
   -1.2860   -8.9690  -26.1350 F   0  0  0  0  0  0  0  0  0  0  0  0
   -1.9830  -10.4060  -27.6120 F   0  0  0  0  0  0  0  0  0  0  0  0
   -2.2180  -10.8240  -25.4920 F   0  0  0  0  0  0  0  0  0  0  0  0
   -0.6450   -5.3760  -23.4860 C   0  0  0  0  0  1  0  0  0  0  0  0
    0.0560   -6.7070  -23.7870 C   0  0  1  0  0  3  0  0  0  0  0  0
   -0.9320   -7.8070  -23.7180 N   0  0  0  0  0  0  0  0  0  0  0  0
   -0.7830   -8.5140  -24.4340 H   0  0  0  0  0  0  0  0  0  0  0  0
   -1.2590   -8.4780  -22.5500 C   0  0  0  0  0  0  0  0  0  0  0  0
   -2.0300   -7.7400  -21.7370 N   0  0  0  0  0  0  0  0  0  0  0  0
   -2.5890   -8.3830  -20.7140 C   0  0  0  0  0  3  0  0  0  0  0  0
   -2.4700   -9.6880  -20.4420 N   0  0  0  0  0  0  0  0  0  0  0  0
   -1.6470  -10.4250  -21.2220 C   0  0  0  0  0  0  0  0  0  0  0  0
   -1.4760  -11.8140  -21.0410 C   0  0  0  0  0  0  0  0  0  0  0  0
   -0.5670  -12.5510  -21.8240 C   0  0  0  0  0  3  0  0  0  0  0  0
    0.2050  -11.9200  -22.7860 C   0  0  0  0  0  3  0  0  0  0  0  0
    0.0230  -10.5620  -23.0070 C   0  0  0  0  0  3  0  0  0  0  0  0
   -0.9370   -9.8200  -22.2750 C   0  0  0  0  0  0  0  0  0  0  0  0
   -2.2610  -12.6110  -20.0460 C   0  0  0  0  0  0  0  0  0  0  0  0
   -3.5440  -12.9530  -20.3520 N   0  0  0  0  0  0  0  0  0  0  0  0
   -1.7740  -12.9590  -18.9780 O   0  0  0  0  0  0  0  0  0  0  0  0
   -4.0810  -13.4890  -19.6860 H   0  0  0  0  0  0  0  0  0  0  0  0
   -3.9540  -12.6920  -21.2450 H   0  0  0  0  0  0  0  0  0  0  0  0
  1 23  1  0  0  0  0
  2  1  2  0  0  0  0
  3  2  1  0  0  0  0
  4  3  2  0  0  0  0
  4  5  1  0  0  0  0
  5  6  2  0  0  0  0
  6  1  1  0  0  0  0
  7  5  1  0  0  0  0
  7  8  1  0  0  0  0
  8  9  2  0  0  0  0
  8 11  1  0  0  0  0
 10  7  1  0  0  0  0
 11 16  1  0  0  0  0
 12 11  2  0  0  0  0
 12 13  1  0  0  0  0
 13 14  2  0  0  0  0
 14 15  1  0  0  0  0
 16 15  2  0  0  0  0
 16 17  1  0  0  0  0
 18 13  1  0  0  0  0
 18 19  1  0  0  0  0
 18 21  1  0  0  0  0
 20 18  1  0  0  0  0
 23 24  1  0  0  0  0
 23 22  1  6  0  0  0
 24 26  1  0  0  0  0
 25 24  1  0  0  0  0
 26 35  2  0  0  0  0
 26 27  1  0  0  0  0
 27 28  2  0  0  0  0
 28 29  1  0  0  0  0
 30 31  1  0  0  0  0
 30 29  2  0  0  0  0
 31 36  1  0  0  0  0
 32 31  2  0  0  0  0
 33 32  1  0  0  0  0
 34 33  2  0  0  0  0
 34 35  1  0  0  0  0
 35 30  1  0  0  0  0
 36 38  2  0  0  0  0
 37 36  1  0  0  0  0
 37 39  1  0  0  0  0
 40 37  1  0  0  0  0
M  END
>  <minimizedAffinity>
-9.82306004

$$$$

 OpenBabel10152419503D

 40 43  0  0  1  0  0  0  0  0999 V2000
    3.0600  -10.2030  -26.1940 C   0  0  0  0  0  0  0  0  0  0  0  0
    3.5310  -10.9670  -27.2680 C   0  0  0  0  0  3  0  0  0  0  0  0
    3.2910  -12.3360  -27.3040 C   0  0  0  0  0  3  0  0  0  0  0  0
    2.6160  -12.9590  -26.2510 C   0  0  0  0  0  3  0  0  0  0  0  0
    2.2620  -12.2500  -25.1060 C   0  0  0  0  0  0  0  0  0  0  0  0
    2.5030  -10.8690  -25.0850 C   0  0  0  0  0  3  0  0  0  0  0  0
    1.5890  -12.7810  -23.9870 N   0  0  0  0  0  0  0  0  0  0  0  0
    0.4730  -12.3970  -23.2830 C   0  0  0  0  0  0  0  0  0  0  0  0
    0.2170  -12.9330  -22.2050 O   0  0  0  0  0  0  0  0  0  0  0  0
    2.0080  -13.6000  -23.5630 H   0  0  0  0  0  0  0  0  0  0  0  0
   -0.4370  -11.3550  -23.7630 C   0  0  0  0  0  0  0  0  0  0  0  0
   -0.8330  -10.3420  -22.8800 C   0  0  0  0  0  3  0  0  0  0  0  0
   -1.6560   -9.2990  -23.3330 C   0  0  0  0  0  0  0  0  0  0  0  0
   -2.0820   -9.3010  -24.6730 C   0  0  0  0  0  3  0  0  0  0  0  0
   -1.7190  -10.3400  -25.5360 C   0  0  0  0  0  3  0  0  0  0  0  0
   -0.9170  -11.3760  -25.0700 C   0  0  0  0  0  0  0  0  0  0  0  0
   -0.5800  -12.3630  -25.9140 F   0  0  0  0  0  0  0  0  0  0  0  0
   -2.0950   -8.2110  -22.3780 C   0  0  0  0  0  0  0  0  0  0  0  0
   -2.8410   -8.7020  -21.3520 F   0  0  0  0  0  0  0  0  0  0  0  0
   -1.0500   -7.5550  -21.8080 F   0  0  0  0  0  0  0  0  0  0  0  0
   -2.8600   -7.2540  -22.9720 F   0  0  0  0  0  0  0  0  0  0  0  0
    4.2860   -8.1040  -26.8340 C   0  0  0  0  0  1  0  0  0  0  0  0
    2.9820   -8.6830  -26.2710 C   0  0  1  0  0  3  0  0  0  0  0  0
    1.8370   -8.1620  -27.0490 N   0  0  0  0  0  0  0  0  0  0  0  0
    0.9580   -8.6140  -26.8070 H   0  0  0  0  0  0  0  0  0  0  0  0
    1.5650   -6.8120  -27.2120 C   0  0  0  0  0  0  0  0  0  0  0  0
    1.9620   -6.3520  -28.4090 N   0  0  0  0  0  0  0  0  0  0  0  0
    1.5280   -5.1400  -28.7450 C   0  0  0  0  0  3  0  0  0  0  0  0
    0.7230   -4.3580  -28.0160 N   0  0  0  0  0  0  0  0  0  0  0  0
    0.3680   -4.7910  -26.7840 C   0  0  0  0  0  0  0  0  0  0  0  0
   -0.5030   -4.0590  -25.9480 C   0  0  0  0  0  0  0  0  0  0  0  0
   -0.8090   -4.4960  -24.6450 C   0  0  0  0  0  3  0  0  0  0  0  0
   -0.2420   -5.6540  -24.1390 C   0  0  0  0  0  3  0  0  0  0  0  0
    0.5850   -6.4090  -24.9600 C   0  0  0  0  0  3  0  0  0  0  0  0
    0.8490   -6.0200  -26.2960 C   0  0  0  0  0  0  0  0  0  0  0  0
   -1.1890   -2.8030  -26.3830 C   0  0  0  0  0  0  0  0  0  0  0  0
   -0.4380   -1.8080  -26.9360 N   0  0  0  0  0  0  0  0  0  0  0  0
   -2.3990   -2.6560  -26.2560 O   0  0  0  0  0  0  0  0  0  0  0  0
   -0.8920   -0.9560  -27.2310 H   0  0  0  0  0  0  0  0  0  0  0  0
    0.5620   -1.9250  -27.0700 H   0  0  0  0  0  0  0  0  0  0  0  0
  1  6  1  0  0  0  0
  2  1  2  0  0  0  0
  3  2  1  0  0  0  0
  3  4  2  0  0  0  0
  4  5  1  0  0  0  0
  5  6  2  0  0  0  0
  5  7  1  0  0  0  0
  7 10  1  0  0  0  0
  7  8  1  0  0  0  0
  8  9  2  0  0  0  0
 11  8  1  0  0  0  0
 11 12  1  0  0  0  0
 13 12  2  0  0  0  0
 13 18  1  0  0  0  0
 14 13  1  0  0  0  0
 15 16  1  0  0  0  0
 15 14  2  0  0  0  0
 16 11  2  0  0  0  0
 17 16  1  0  0  0  0
 18 20  1  0  0  0  0
 18 19  1  0  0  0  0
 21 18  1  0  0  0  0
 23 22  1  6  0  0  0
 23  1  1  0  0  0  0
 24 25  1  0  0  0  0
 24 23  1  0  0  0  0
 26 24  1  0  0  0  0
 26 35  1  0  0  0  0
 27 26  2  0  0  0  0
 28 27  1  0  0  0  0
 28 29  2  0  0  0  0
 29 30  1  0  0  0  0
 30 35  2  0  0  0  0
 30 31  1  0  0  0  0
 31 32  2  0  0  0  0
 32 33  1  0  0  0  0
 34 33  2  0  0  0  0
 35 34  1  0  0  0  0
 36 38  2  0  0  0  0
 36 31  1  0  0  0  0
 37 36  1  0  0  0  0
 39 37  1  0  0  0  0
 40 37  1  0  0  0  0
M  END
>  <minimizedAffinity>
-9.79159546

$$$$

 OpenBabel10152419503D

 40 43  0  0  1  0  0  0  0  0999 V2000
    2.2640  -10.5520  -25.5850 C   0  0  0  0  0  0  0  0  0  0  0  0
    2.1040   -9.9880  -24.3130 C   0  0  0  0  0  3  0  0  0  0  0  0
    2.1000   -8.6050  -24.1630 C   0  0  0  0  0  3  0  0  0  0  0  0
    2.2960   -7.7770  -25.2710 C   0  0  0  0  0  3  0  0  0  0  0  0
    2.5990   -8.3110  -26.5210 C   0  0  0  0  0  0  0  0  0  0  0  0
    2.5930   -9.7050  -26.6610 C   0  0  0  0  0  3  0  0  0  0  0  0
    2.8230   -7.5680  -27.6980 N   0  0  0  0  0  0  0  0  0  0  0  0
    2.1090   -6.5940  -28.3530 C   0  0  0  0  0  0  0  0  0  0  0  0
    2.4400   -6.2540  -29.4890 O   0  0  0  0  0  0  0  0  0  0  0  0
    3.6620   -7.7990  -28.2170 H   0  0  0  0  0  0  0  0  0  0  0  0
    0.9470   -5.9350  -27.7520 C   0  0  0  0  0  0  0  0  0  0  0  0
    0.9780   -4.5460  -27.5670 C   0  0  0  0  0  3  0  0  0  0  0  0
   -0.1460   -3.8830  -27.0500 C   0  0  0  0  0  0  0  0  0  0  0  0
   -1.2850   -4.6370  -26.7120 C   0  0  0  0  0  3  0  0  0  0  0  0
   -1.2910   -6.0270  -26.8590 C   0  0  0  0  0  3  0  0  0  0  0  0
   -0.1650   -6.6730  -27.3570 C   0  0  0  0  0  0  0  0  0  0  0  0
   -0.1910   -8.0080  -27.4900 F   0  0  0  0  0  0  0  0  0  0  0  0
   -0.1110   -2.3860  -26.8360 C   0  0  0  0  0  0  0  0  0  0  0  0
    1.0930   -1.8500  -27.1720 F   0  0  0  0  0  0  0  0  0  0  0  0
   -1.0410   -1.7250  -27.5750 F   0  0  0  0  0  0  0  0  0  0  0  0
   -0.3340   -2.0240  -25.5420 F   0  0  0  0  0  0  0  0  0  0  0  0
    2.8370  -12.9370  -25.0360 C   0  0  0  0  0  1  0  0  0  0  0  0
    1.9280  -12.0130  -25.8560 C   0  0  1  0  0  3  0  0  0  0  0  0
    0.5140  -12.3770  -25.6160 N   0  0  0  0  0  0  0  0  0  0  0  0
    0.3160  -13.3500  -25.8340 H   0  0  0  0  0  0  0  0  0  0  0  0
   -0.1720  -12.0770  -24.4490 C   0  0  0  0  0  0  0  0  0  0  0  0
    0.0760  -12.9590  -23.4700 N   0  0  0  0  0  0  0  0  0  0  0  0
   -0.3430  -12.6200  -22.2530 C   0  0  0  0  0  3  0  0  0  0  0  0
   -0.9600  -11.4810  -21.9190 N   0  0  0  0  0  0  0  0  0  0  0  0
   -1.2660  -10.6130  -22.9120 C   0  0  0  0  0  0  0  0  0  0  0  0
   -1.8870   -9.3700  -22.6640 C   0  0  0  0  0  0  0  0  0  0  0  0
   -2.2540   -8.5100  -23.7170 C   0  0  0  0  0  3  0  0  0  0  0  0
   -2.0310   -8.8750  -25.0340 C   0  0  0  0  0  3  0  0  0  0  0  0
   -1.3860  -10.0760  -25.2970 C   0  0  0  0  0  3  0  0  0  0  0  0
   -0.9480  -10.9210  -24.2470 C   0  0  0  0  0  0  0  0  0  0  0  0
   -2.1670   -8.8560  -21.2870 C   0  0  0  0  0  0  0  0  0  0  0  0
   -1.1470   -8.8260  -20.3830 N   0  0  0  0  0  0  0  0  0  0  0  0
   -3.2810   -8.4630  -20.9640 O   0  0  0  0  0  0  0  0  0  0  0  0
   -1.3270   -8.4830  -19.4510 H   0  0  0  0  0  0  0  0  0  0  0  0
   -0.2120   -9.1260  -20.6440 H   0  0  0  0  0  0  0  0  0  0  0  0
  1  2  1  0  0  0  0
  2  3  2  0  0  0  0
  4  3  1  0  0  0  0
  5  4  2  0  0  0  0
  6  5  1  0  0  0  0
  6  1  2  0  0  0  0
  7  5  1  0  0  0  0
  8 11  1  0  0  0  0
  8  7  1  0  0  0  0
  9  8  2  0  0  0  0
 10  7  1  0  0  0  0
 11 12  2  0  0  0  0
 11 16  1  0  0  0  0
 12 13  1  0  0  0  0
 13 18  1  0  0  0  0
 13 14  2  0  0  0  0
 15 14  1  0  0  0  0
 16 15  2  0  0  0  0
 17 16  1  0  0  0  0
 18 21  1  0  0  0  0
 19 18  1  0  0  0  0
 20 18  1  0  0  0  0
 23 24  1  0  0  0  0
 23  1  1  0  0  0  0
 23 22  1  1  0  0  0
 24 26  1  0  0  0  0
 25 24  1  0  0  0  0
 26 35  2  0  0  0  0
 26 27  1  0  0  0  0
 27 28  2  0  0  0  0
 28 29  1  0  0  0  0
 30 31  1  0  0  0  0
 30 29  2  0  0  0  0
 31 36  1  0  0  0  0
 32 31  2  0  0  0  0
 33 32  1  0  0  0  0
 34 33  2  0  0  0  0
 34 35  1  0  0  0  0
 35 30  1  0  0  0  0
 36 38  2  0  0  0  0
 36 37  1  0  0  0  0
 37 39  1  0  0  0  0
 40 37  1  0  0  0  0
M  END
>  <minimizedAffinity>
-9.05259705

$$$$

 OpenBabel10152419503D

 40 43  0  0  1  0  0  0  0  0999 V2000
   -0.3610  -11.4840  -22.8760 C   0  0  0  0  0  0  0  0  0  0  0  0
   -0.6550  -12.7620  -22.3830 C   0  0  0  0  0  3  0  0  0  0  0  0
   -1.4700  -12.9040  -21.2660 C   0  0  0  0  0  3  0  0  0  0  0  0
   -1.9650  -11.7750  -20.6080 C   0  0  0  0  0  3  0  0  0  0  0  0
   -1.5730  -10.4940  -20.9890 C   0  0  0  0  0  0  0  0  0  0  0  0
   -0.7570  -10.3630  -22.1210 C   0  0  0  0  0  3  0  0  0  0  0  0
   -2.0030   -9.2920  -20.3900 N   0  0  0  0  0  0  0  0  0  0  0  0
   -2.2290   -8.0240  -20.8690 C   0  0  0  0  0  0  0  0  0  0  0  0
   -2.4060   -7.0970  -20.0790 O   0  0  0  0  0  0  0  0  0  0  0  0
   -2.1550   -9.3230  -19.3890 H   0  0  0  0  0  0  0  0  0  0  0  0
   -2.2620   -7.7190  -22.3010 C   0  0  0  0  0  0  0  0  0  0  0  0
   -1.1060   -7.2150  -22.9120 C   0  0  0  0  0  3  0  0  0  0  0  0
   -1.0930   -6.9720  -24.2950 C   0  0  0  0  0  0  0  0  0  0  0  0
   -2.2570   -7.2310  -25.0420 C   0  0  0  0  0  3  0  0  0  0  0  0
   -3.4190   -7.6930  -24.4170 C   0  0  0  0  0  3  0  0  0  0  0  0
   -3.4230   -7.9130  -23.0430 C   0  0  0  0  0  0  0  0  0  0  0  0
   -4.5480   -8.3560  -22.4630 F   0  0  0  0  0  0  0  0  0  0  0  0
    0.1480   -6.4150  -24.9540 C   0  0  0  0  0  0  0  0  0  0  0  0
    1.2690   -6.6570  -24.2230 F   0  0  0  0  0  0  0  0  0  0  0  0
    0.3760   -6.9450  -26.1850 F   0  0  0  0  0  0  0  0  0  0  0  0
    0.1010   -5.0650  -25.1300 F   0  0  0  0  0  0  0  0  0  0  0  0
   -0.6460  -10.3050  -25.0770 C   0  0  0  0  0  1  0  0  0  0  0  0
    0.2180  -11.2820  -24.2700 C   0  0  1  0  0  3  0  0  0  0  0  0
    1.6260  -10.8260  -24.2940 N   0  0  0  0  0  0  0  0  0  0  0  0
    2.1230  -11.0400  -23.4320 H   0  0  0  0  0  0  0  0  0  0  0  0
    2.5010  -11.0800  -25.3390 C   0  0  0  0  0  0  0  0  0  0  0  0
    2.6910  -12.3930  -25.5390 N   0  0  0  0  0  0  0  0  0  0  0  0
    3.3180  -12.7310  -26.6630 C   0  0  0  0  0  3  0  0  0  0  0  0
    3.7480  -11.8910  -27.6110 N   0  0  0  0  0  0  0  0  0  0  0  0
    3.6130  -10.5630  -27.3880 C   0  0  0  0  0  0  0  0  0  0  0  0
    4.0040   -9.5940  -28.3370 C   0  0  0  0  0  0  0  0  0  0  0  0
    3.9130   -8.2160  -28.0600 C   0  0  0  0  0  3  0  0  0  0  0  0
    3.4530   -7.7750  -26.8300 C   0  0  0  0  0  3  0  0  0  0  0  0
    3.0260   -8.7120  -25.8990 C   0  0  0  0  0  3  0  0  0  0  0  0
    3.0470  -10.0990  -26.1870 C   0  0  0  0  0  0  0  0  0  0  0  0
    4.5030   -9.9430  -29.7040 C   0  0  0  0  0  0  0  0  0  0  0  0
    4.7090  -11.2570  -30.0070 N   0  0  0  0  0  0  0  0  0  0  0  0
    4.7210   -9.0810  -30.5460 O   0  0  0  0  0  0  0  0  0  0  0  0
    5.0470  -11.5010  -30.9260 H   0  0  0  0  0  0  0  0  0  0  0  0
    4.5090  -11.9850  -29.3260 H   0  0  0  0  0  0  0  0  0  0  0  0
  1  2  2  0  0  0  0
  1  6  1  0  0  0  0
  2  3  1  0  0  0  0
  3  4  2  0  0  0  0
  5  4  1  0  0  0  0
  5  7  1  0  0  0  0
  6  5  2  0  0  0  0
  7 10  1  0  0  0  0
  8  7  1  0  0  0  0
  8  9  2  0  0  0  0
 11  8  1  0  0  0  0
 12 11  1  0  0  0  0
 13 12  2  0  0  0  0
 14 15  2  0  0  0  0
 14 13  1  0  0  0  0
 15 16  1  0  0  0  0
 16 17  1  0  0  0  0
 16 11  2  0  0  0  0
 18 13  1  0  0  0  0
 18 19  1  0  0  0  0
 20 18  1  0  0  0  0
 21 18  1  0  0  0  0
 23 22  1  1  0  0  0
 23  1  1  0  0  0  0
 24 23  1  0  0  0  0
 24 25  1  0  0  0  0
 26 24  1  0  0  0  0
 27 26  1  0  0  0  0
 28 27  2  0  0  0  0
 29 30  2  0  0  0  0
 29 28  1  0  0  0  0
 30 35  1  0  0  0  0
 31 32  2  0  0  0  0
 31 30  1  0  0  0  0
 32 33  1  0  0  0  0
 33 34  2  0  0  0  0
 35 34  1  0  0  0  0
 35 26  2  0  0  0  0
 36 31  1  0  0  0  0
 37 36  1  0  0  0  0
 37 40  1  0  0  0  0
 38 36  2  0  0  0  0
 39 37  1  0  0  0  0
M  END
>  <minimizedAffinity>
-8.78360462

$$$$

 OpenBabel10152419503D

 40 43  0  0  1  0  0  0  0  0999 V2000
    0.1820  -11.2380  -22.7950 C   0  0  0  0  0  0  0  0  0  0  0  0
   -0.5820  -12.2230  -22.1570 C   0  0  0  0  0  3  0  0  0  0  0  0
   -1.7410  -11.8690  -21.4750 C   0  0  0  0  0  3  0  0  0  0  0  0
   -2.1240  -10.5290  -21.3880 C   0  0  0  0  0  3  0  0  0  0  0  0
   -1.3090   -9.5160  -21.8890 C   0  0  0  0  0  0  0  0  0  0  0  0
   -0.1480   -9.8850  -22.5810 C   0  0  0  0  0  3  0  0  0  0  0  0
   -1.5950   -8.1360  -21.8470 N   0  0  0  0  0  0  0  0  0  0  0  0
   -1.4500   -7.1100  -22.7510 C   0  0  0  0  0  0  0  0  0  0  0  0
   -1.5910   -5.9460  -22.3790 O   0  0  0  0  0  0  0  0  0  0  0  0
   -1.9540   -7.7820  -20.9680 H   0  0  0  0  0  0  0  0  0  0  0  0
   -1.1240   -7.3460  -24.1590 C   0  0  0  0  0  0  0  0  0  0  0  0
   -1.4280   -8.5910  -24.7250 C   0  0  0  0  0  3  0  0  0  0  0  0
   -1.1810   -8.8210  -26.0880 C   0  0  0  0  0  0  0  0  0  0  0  0
   -0.6140   -7.7900  -26.8590 C   0  0  0  0  0  3  0  0  0  0  0  0
   -0.2730   -6.5660  -26.2760 C   0  0  0  0  0  3  0  0  0  0  0  0
   -0.5080   -6.3570  -24.9210 C   0  0  0  0  0  0  0  0  0  0  0  0
   -0.1730   -5.1760  -24.3810 F   0  0  0  0  0  0  0  0  0  0  0  0
   -1.4960  -10.1680  -26.6980 C   0  0  0  0  0  0  0  0  0  0  0  0
   -0.3820  -10.9340  -26.8500 F   0  0  0  0  0  0  0  0  0  0  0  0
   -2.3600  -10.8990  -25.9470 F   0  0  0  0  0  0  0  0  0  0  0  0
   -2.0590  -10.0770  -27.9350 F   0  0  0  0  0  0  0  0  0  0  0  0
    0.6780  -12.6000  -24.8490 C   0  0  0  0  0  1  0  0  0  0  0  0
    1.2380  -11.5970  -23.8330 C   0  0  1  0  0  3  0  0  0  0  0  0
    1.8150  -10.4390  -24.5520 N   0  0  0  0  0  0  0  0  0  0  0  0
    2.1810   -9.7280  -23.9230 H   0  0  0  0  0  0  0  0  0  0  0  0
    2.7140  -10.5530  -25.6010 C   0  0  0  0  0  0  0  0  0  0  0  0
    3.1100  -11.8200  -25.7980 N   0  0  0  0  0  0  0  0  0  0  0  0
    3.7770  -12.0580  -26.9250 C   0  0  0  0  0  3  0  0  0  0  0  0
    4.0640  -11.1630  -27.8770 N   0  0  0  0  0  0  0  0  0  0  0  0
    3.7200   -9.8730  -27.6570 C   0  0  0  0  0  0  0  0  0  0  0  0
    3.9470   -8.8570  -28.6100 C   0  0  0  0  0  0  0  0  0  0  0  0
    3.6400   -7.5100  -28.3360 C   0  0  0  0  0  3  0  0  0  0  0  0
    3.1210   -7.1440  -27.1050 C   0  0  0  0  0  3  0  0  0  0  0  0
    2.8530   -8.1340  -26.1690 C   0  0  0  0  0  3  0  0  0  0  0  0
    3.0920   -9.5010  -26.4540 C   0  0  0  0  0  0  0  0  0  0  0  0
    4.4890   -9.1270  -29.9790 C   0  0  0  0  0  0  0  0  0  0  0  0
    4.7220  -10.4190  -30.3440 N   0  0  0  0  0  0  0  0  0  0  0  0
    4.7180   -8.2180  -30.7680 O   0  0  0  0  0  0  0  0  0  0  0  0
    5.0880  -10.6100  -31.2650 H   0  0  0  0  0  0  0  0  0  0  0  0
    4.5130  -11.1850  -29.7100 H   0  0  0  0  0  0  0  0  0  0  0  0
  1  6  2  0  0  0  0
  1  2  1  0  0  0  0
  2  3  2  0  0  0  0
  3  4  1  0  0  0  0
  5  7  1  0  0  0  0
  5  4  2  0  0  0  0
  6  5  1  0  0  0  0
  7 10  1  0  0  0  0
  8  9  2  0  0  0  0
  8  7  1  0  0  0  0
 11  8  1  0  0  0  0
 12 11  1  0  0  0  0
 13 12  2  0  0  0  0
 14 15  2  0  0  0  0
 14 13  1  0  0  0  0
 15 16  1  0  0  0  0
 16 17  1  0  0  0  0
 16 11  2  0  0  0  0
 18 13  1  0  0  0  0
 18 20  1  0  0  0  0
 19 18  1  0  0  0  0
 21 18  1  0  0  0  0
 23 22  1  6  0  0  0
 23  1  1  0  0  0  0
 24 25  1  0  0  0  0
 24 23  1  0  0  0  0
 26 24  1  0  0  0  0
 27 26  1  0  0  0  0
 28 27  2  0  0  0  0
 29 30  2  0  0  0  0
 29 28  1  0  0  0  0
 30 35  1  0  0  0  0
 31 32  2  0  0  0  0
 31 30  1  0  0  0  0
 32 33  1  0  0  0  0
 33 34  2  0  0  0  0
 35 34  1  0  0  0  0
 35 26  2  0  0  0  0
 36 31  1  0  0  0  0
 37 36  1  0  0  0  0
 37 40  1  0  0  0  0
 38 36  2  0  0  0  0
 39 37  1  0  0  0  0
M  END
>  <minimizedAffinity>
-8.52497292

$$$$

 OpenBabel10152419503D

 40 43  0  0  1  0  0  0  0  0999 V2000
    2.7340   -7.6230  -27.4230 C   0  0  0  0  0  0  0  0  0  0  0  0
    3.1590   -7.4090  -28.7400 C   0  0  0  0  0  3  0  0  0  0  0  0
    4.0400   -8.3040  -29.3380 C   0  0  0  0  0  3  0  0  0  0  0  0
    4.5340   -9.3930  -28.6160 C   0  0  0  0  0  3  0  0  0  0  0  0
    4.2410   -9.5500  -27.2630 C   0  0  0  0  0  0  0  0  0  0  0  0
    3.3470   -8.6460  -26.6730 C   0  0  0  0  0  3  0  0  0  0  0  0
    4.6930  -10.6030  -26.4430 N   0  0  0  0  0  0  0  0  0  0  0  0
    4.0590  -11.4940  -25.6110 C   0  0  0  0  0  0  0  0  0  0  0  0
    4.7220  -12.1890  -24.8420 O   0  0  0  0  0  0  0  0  0  0  0  0
    5.6960  -10.7400  -26.4060 H   0  0  0  0  0  0  0  0  0  0  0  0
    2.6030  -11.6520  -25.5930 C   0  0  0  0  0  0  0  0  0  0  0  0
    1.9240  -11.5350  -24.3730 C   0  0  0  0  0  3  0  0  0  0  0  0
    0.5230  -11.6210  -24.3390 C   0  0  0  0  0  0  0  0  0  0  0  0
   -0.1740  -11.8390  -25.5410 C   0  0  0  0  0  3  0  0  0  0  0  0
    0.5140  -11.9980  -26.7480 C   0  0  0  0  0  3  0  0  0  0  0  0
    1.9030  -11.9270  -26.7650 C   0  0  0  0  0  0  0  0  0  0  0  0
    2.5440  -12.0830  -27.9320 F   0  0  0  0  0  0  0  0  0  0  0  0
   -0.2110  -11.5090  -23.0220 C   0  0  0  0  0  0  0  0  0  0  0  0
    0.2420  -12.4080  -22.1060 F   0  0  0  0  0  0  0  0  0  0  0  0
   -0.0820  -10.2840  -22.4470 F   0  0  0  0  0  0  0  0  0  0  0  0
   -1.5500  -11.7310  -23.1340 F   0  0  0  0  0  0  0  0  0  0  0  0
    1.4920   -5.4390  -27.3300 C   0  0  0  0  0  1  0  0  0  0  0  0
    1.5250   -6.8950  -26.8480 C   0  0  1  0  0  3  0  0  0  0  0  0
    0.2230   -7.5370  -27.1360 N   0  0  0  0  0  0  0  0  0  0  0  0
    0.3150   -8.3680  -27.7170 H   0  0  0  0  0  0  0  0  0  0  0  0
   -0.7270   -7.8230  -26.1680 C   0  0  0  0  0  0  0  0  0  0  0  0
   -1.4250   -8.9330  -26.4500 N   0  0  0  0  0  0  0  0  0  0  0  0
   -2.1840   -9.4150  -25.4690 C   0  0  0  0  0  3  0  0  0  0  0  0
   -2.2920   -8.9110  -24.2340 N   0  0  0  0  0  0  0  0  0  0  0  0
   -1.6380   -7.7590  -23.9610 C   0  0  0  0  0  0  0  0  0  0  0  0
   -1.6590   -7.1620  -22.6820 C   0  0  0  0  0  0  0  0  0  0  0  0
   -1.0230   -5.9290  -22.4370 C   0  0  0  0  0  3  0  0  0  0  0  0
   -0.3720   -5.2580  -23.4580 C   0  0  0  0  0  3  0  0  0  0  0  0
   -0.3050   -5.8480  -24.7130 C   0  0  0  0  0  3  0  0  0  0  0  0
   -0.8810   -7.1190  -24.9600 C   0  0  0  0  0  0  0  0  0  0  0  0
   -2.3150   -7.7940  -21.4960 C   0  0  0  0  0  0  0  0  0  0  0  0
   -3.6520   -8.0530  -21.5510 N   0  0  0  0  0  0  0  0  0  0  0  0
   -1.6780   -8.0850  -20.4900 O   0  0  0  0  0  0  0  0  0  0  0  0
   -4.1040   -8.4780  -20.7550 H   0  0  0  0  0  0  0  0  0  0  0  0
   -4.1890   -7.8400  -22.3880 H   0  0  0  0  0  0  0  0  0  0  0  0
  1 23  1  0  0  0  0
  1  6  1  0  0  0  0
  2  1  2  0  0  0  0
  3  2  1  0  0  0  0
  3  4  2  0  0  0  0
  4  5  1  0  0  0  0
  5  6  2  0  0  0  0
  5  7  1  0  0  0  0
  7 10  1  0  0  0  0
  7  8  1  0  0  0  0
  8 11  1  0  0  0  0
  8  9  2  0  0  0  0
 11 12  1  0  0  0  0
 12 13  2  0  0  0  0
 13 18  1  0  0  0  0
 14 13  1  0  0  0  0
 15 14  2  0  0  0  0
 16 15  1  0  0  0  0
 16 11  2  0  0  0  0
 17 16  1  0  0  0  0
 18 20  1  0  0  0  0
 18 19  1  0  0  0  0
 21 18  1  0  0  0  0
 23 22  1  6  0  0  0
 24 23  1  0  0  0  0
 24 26  1  0  0  0  0
 25 24  1  0  0  0  0
 26 35  1  0  0  0  0
 27 26  2  0  0  0  0
 27 28  1  0  0  0  0
 28 29  2  0  0  0  0
 29 30  1  0  0  0  0
 30 31  1  0  0  0  0
 31 32  2  0  0  0  0
 31 36  1  0  0  0  0
 33 32  1  0  0  0  0
 34 33  2  0  0  0  0
 35 34  1  0  0  0  0
 35 30  2  0  0  0  0
 36 38  2  0  0  0  0
 37 36  1  0  0  0  0
 37 39  1  0  0  0  0
 40 37  1  0  0  0  0
M  END
>  <minimizedAffinity>
-8.52022934

$$$$

 OpenBabel10152419503D

 40 43  0  0  1  0  0  0  0  0999 V2000
   -0.0810  -10.5130  -23.5690 C   0  0  0  0  0  0  0  0  0  0  0  0
   -0.8340  -11.2990  -22.6880 C   0  0  0  0  0  3  0  0  0  0  0  0
   -1.6820  -10.6910  -21.7690 C   0  0  0  0  0  3  0  0  0  0  0  0
   -1.7550   -9.2980  -21.6930 C   0  0  0  0  0  3  0  0  0  0  0  0
   -0.9130   -8.4930  -22.4560 C   0  0  0  0  0  0  0  0  0  0  0  0
   -0.0680   -9.1160  -23.3840 C   0  0  0  0  0  3  0  0  0  0  0  0
   -0.8980   -7.0840  -22.4500 N   0  0  0  0  0  0  0  0  0  0  0  0
   -0.7220   -6.1340  -23.4280 C   0  0  0  0  0  0  0  0  0  0  0  0
   -0.5480   -4.9570  -23.1120 O   0  0  0  0  0  0  0  0  0  0  0  0
   -1.0020   -6.6410  -21.5450 H   0  0  0  0  0  0  0  0  0  0  0  0
   -0.7250   -6.4660  -24.8540 C   0  0  0  0  0  0  0  0  0  0  0  0
    0.2210   -5.8610  -25.6920 C   0  0  0  0  0  3  0  0  0  0  0  0
    0.2780   -6.2080  -27.0510 C   0  0  0  0  0  0  0  0  0  0  0  0
   -0.6330   -7.1570  -27.5490 C   0  0  0  0  0  3  0  0  0  0  0  0
   -1.6020   -7.7230  -26.7160 C   0  0  0  0  0  3  0  0  0  0  0  0
   -1.6590   -7.3580  -25.3750 C   0  0  0  0  0  0  0  0  0  0  0  0
   -2.5950   -7.9130  -24.5920 F   0  0  0  0  0  0  0  0  0  0  0  0
    1.2880   -5.5460  -27.9610 C   0  0  0  0  0  0  0  0  0  0  0  0
    0.7590   -4.4840  -28.6260 F   0  0  0  0  0  0  0  0  0  0  0  0
    2.3720   -5.0730  -27.2910 F   0  0  0  0  0  0  0  0  0  0  0  0
    1.7760   -6.3820  -28.9190 F   0  0  0  0  0  0  0  0  0  0  0  0
   -0.0190  -10.5060  -26.0820 C   0  0  0  0  0  1  0  0  0  0  0  0
    0.5790  -11.1110  -24.8050 C   0  0  1  0  0  3  0  0  0  0  0  0
    2.0530  -10.9800  -24.8440 N   0  0  0  0  0  0  0  0  0  0  0  0
    2.5160  -11.5470  -24.1380 H   0  0  0  0  0  0  0  0  0  0  0  0
    2.8060  -11.0820  -26.0030 C   0  0  0  0  0  0  0  0  0  0  0  0
    2.8300  -12.3330  -26.4880 N   0  0  0  0  0  0  0  0  0  0  0  0
    3.3210  -12.4780  -27.7160 C   0  0  0  0  0  3  0  0  0  0  0  0
    3.7650  -11.4970  -28.5100 N   0  0  0  0  0  0  0  0  0  0  0  0
    3.7990  -10.2420  -28.0050 C   0  0  0  0  0  0  0  0  0  0  0  0
    4.2190   -9.1310  -28.7690 C   0  0  0  0  0  0  0  0  0  0  0  0
    4.3070   -7.8440  -28.2060 C   0  0  0  0  0  3  0  0  0  0  0  0
    4.0010   -7.6370  -26.8710 C   0  0  0  0  0  3  0  0  0  0  0  0
    3.5480   -8.7090  -26.1140 C   0  0  0  0  0  3  0  0  0  0  0  0
    3.3880   -9.9960  -26.6830 C   0  0  0  0  0  0  0  0  0  0  0  0
    4.5620   -9.2220  -30.2230 C   0  0  0  0  0  0  0  0  0  0  0  0
    4.7180  -10.4570  -30.7790 N   0  0  0  0  0  0  0  0  0  0  0  0
    4.7000   -8.2190  -30.9130 O   0  0  0  0  0  0  0  0  0  0  0  0
    4.9510  -10.5280  -31.7590 H   0  0  0  0  0  0  0  0  0  0  0  0
    4.5830  -11.2980  -30.2250 H   0  0  0  0  0  0  0  0  0  0  0  0
  1  6  2  0  0  0  0
  1  2  1  0  0  0  0
  2  3  2  0  0  0  0
  3  4  1  0  0  0  0
  5  7  1  0  0  0  0
  5  4  2  0  0  0  0
  6  5  1  0  0  0  0
  7 10  1  0  0  0  0
  8  9  2  0  0  0  0
  8  7  1  0  0  0  0
 11  8  1  0  0  0  0
 12 11  2  0  0  0  0
 13 12  1  0  0  0  0
 14 13  2  0  0  0  0
 14 15  1  0  0  0  0
 15 16  2  0  0  0  0
 16 11  1  0  0  0  0
 16 17  1  0  0  0  0
 18 20  1  0  0  0  0
 18 13  1  0  0  0  0
 19 18  1  0  0  0  0
 21 18  1  0  0  0  0
 23 22  1  6  0  0  0
 23  1  1  0  0  0  0
 24 23  1  0  0  0  0
 24 25  1  0  0  0  0
 26 24  1  0  0  0  0
 27 26  1  0  0  0  0
 28 27  2  0  0  0  0
 29 30  2  0  0  0  0
 29 28  1  0  0  0  0
 30 35  1  0  0  0  0
 31 32  2  0  0  0  0
 31 30  1  0  0  0  0
 32 33  1  0  0  0  0
 33 34  2  0  0  0  0
 35 34  1  0  0  0  0
 35 26  2  0  0  0  0
 36 31  1  0  0  0  0
 37 40  1  0  0  0  0
 37 36  1  0  0  0  0
 38 36  2  0  0  0  0
 39 37  1  0  0  0  0
M  END
>  <minimizedAffinity>
-8.08064842

$$$$

 OpenBabel10152419503D

 40 43  0  0  1  0  0  0  0  0999 V2000
    1.8810  -11.6240  -25.4010 C   0  0  0  0  0  0  0  0  0  0  0  0
    1.6040  -12.4030  -26.5310 C   0  0  0  0  0  3  0  0  0  0  0  0
    2.1970  -12.0930  -27.7490 C   0  0  0  0  0  3  0  0  0  0  0  0
    3.0380  -10.9830  -27.8600 C   0  0  0  0  0  3  0  0  0  0  0  0
    3.2180  -10.1100  -26.7900 C   0  0  0  0  0  0  0  0  0  0  0  0
    2.6200  -10.4360  -25.5650 C   0  0  0  0  0  3  0  0  0  0  0  0
    4.0330   -8.9600  -26.7970 N   0  0  0  0  0  0  0  0  0  0  0  0
    3.7820   -7.6220  -26.9870 C   0  0  0  0  0  0  0  0  0  0  0  0
    4.7200   -6.8420  -27.1480 O   0  0  0  0  0  0  0  0  0  0  0  0
    5.0260   -9.1170  -26.6740 H   0  0  0  0  0  0  0  0  0  0  0  0
    2.4250   -7.0740  -27.0130 C   0  0  0  0  0  0  0  0  0  0  0  0
    1.7770   -6.8130  -25.7980 C   0  0  0  0  0  3  0  0  0  0  0  0
    0.4990   -6.2320  -25.7960 C   0  0  0  0  0  0  0  0  0  0  0  0
   -0.1150   -5.9330  -27.0260 C   0  0  0  0  0  3  0  0  0  0  0  0
    0.5200   -6.2380  -28.2340 C   0  0  0  0  0  3  0  0  0  0  0  0
    1.7790   -6.8290  -28.2220 C   0  0  0  0  0  0  0  0  0  0  0  0
    2.3710   -7.1140  -29.3910 F   0  0  0  0  0  0  0  0  0  0  0  0
   -0.2080   -5.9610  -24.4860 C   0  0  0  0  0  0  0  0  0  0  0  0
    0.0740   -6.9050  -23.5480 F   0  0  0  0  0  0  0  0  0  0  0  0
    0.1350   -4.7660  -23.9380 F   0  0  0  0  0  0  0  0  0  0  0  0
   -1.5650   -5.9440  -24.6040 F   0  0  0  0  0  0  0  0  0  0  0  0
    2.7050  -12.9490  -23.4300 C   0  0  0  0  0  1  0  0  0  0  0  0
    1.5510  -12.1120  -23.9960 C   0  0  1  0  0  3  0  0  0  0  0  0
    1.2050  -11.0410  -23.0350 N   0  0  0  0  0  0  0  0  0  0  0  0
    1.6680  -10.1600  -23.2450 H   0  0  0  0  0  0  0  0  0  0  0  0
   -0.0930  -10.7350  -22.6560 C   0  0  0  0  0  0  0  0  0  0  0  0
   -0.3630  -11.1220  -21.4000 N   0  0  0  0  0  0  0  0  0  0  0  0
   -1.4930  -10.6580  -20.8720 C   0  0  0  0  0  3  0  0  0  0  0  0
   -2.3610   -9.8310  -21.4660 N   0  0  0  0  0  0  0  0  0  0  0  0
   -2.1260   -9.4850  -22.7530 C   0  0  0  0  0  0  0  0  0  0  0  0
   -2.9600   -8.5930  -23.4610 C   0  0  0  0  0  0  0  0  0  0  0  0
   -2.7330   -8.2960  -24.8180 C   0  0  0  0  0  3  0  0  0  0  0  0
   -1.6870   -8.8920  -25.5040 C   0  0  0  0  0  3  0  0  0  0  0  0
   -0.8320   -9.7400  -24.8150 C   0  0  0  0  0  3  0  0  0  0  0  0
   -1.0050   -9.9970  -23.4320 C   0  0  0  0  0  0  0  0  0  0  0  0
   -4.1120   -7.8760  -22.8290 C   0  0  0  0  0  0  0  0  0  0  0  0
   -4.0910   -7.6690  -21.4810 N   0  0  0  0  0  0  0  0  0  0  0  0
   -5.0580   -7.4720  -23.4940 O   0  0  0  0  0  0  0  0  0  0  0  0
   -4.8640   -7.1870  -21.0470 H   0  0  0  0  0  0  0  0  0  0  0  0
   -3.3010   -7.9760  -20.9210 H   0  0  0  0  0  0  0  0  0  0  0  0
  1 23  1  0  0  0  0
  2  1  2  0  0  0  0
  3  2  1  0  0  0  0
  4  3  2  0  0  0  0
  4  5  1  0  0  0  0
  5  6  2  0  0  0  0
  6  1  1  0  0  0  0
  7  5  1  0  0  0  0
  7 10  1  0  0  0  0
  8  7  1  0  0  0  0
  9  8  2  0  0  0  0
 11  8  1  0  0  0  0
 11 12  1  0  0  0  0
 12 13  2  0  0  0  0
 13 18  1  0  0  0  0
 14 13  1  0  0  0  0
 15 16  1  0  0  0  0
 15 14  2  0  0  0  0
 16 11  2  0  0  0  0
 17 16  1  0  0  0  0
 18 20  1  0  0  0  0
 18 19  1  0  0  0  0
 21 18  1  0  0  0  0
 23 22  1  1  0  0  0
 23 24  1  0  0  0  0
 24 26  1  0  0  0  0
 25 24  1  0  0  0  0
 26 27  1  0  0  0  0
 27 28  2  0  0  0  0
 29 28  1  0  0  0  0
 30 29  2  0  0  0  0
 31 36  1  0  0  0  0
 31 30  1  0  0  0  0
 32 31  2  0  0  0  0
 33 32  1  0  0  0  0
 33 34  2  0  0  0  0
 34 35  1  0  0  0  0
 35 30  1  0  0  0  0
 35 26  2  0  0  0  0
 36 37  1  0  0  0  0
 37 39  1  0  0  0  0
 37 40  1  0  0  0  0
 38 36  2  0  0  0  0
M  END
>  <minimizedAffinity>
-7.87807178

$$$$

 OpenBabel10152419503D

 40 43  0  0  1  0  0  0  0  0999 V2000
    2.4970  -11.7640  -25.7190 C   0  0  0  0  0  0  0  0  0  0  0  0
    2.5700  -12.6690  -26.7850 C   0  0  0  0  0  3  0  0  0  0  0  0
    3.1890  -12.2950  -27.9730 C   0  0  0  0  0  3  0  0  0  0  0  0
    3.7020  -11.0040  -28.1210 C   0  0  0  0  0  3  0  0  0  0  0  0
    3.5170  -10.0400  -27.1320 C   0  0  0  0  0  0  0  0  0  0  0  0
    2.8990  -10.4320  -25.9370 C   0  0  0  0  0  3  0  0  0  0  0  0
    3.9850   -8.7110  -27.1840 N   0  0  0  0  0  0  0  0  0  0  0  0
    3.3670   -7.4960  -27.3610 C   0  0  0  0  0  0  0  0  0  0  0  0
    4.0460   -6.4920  -27.5730 O   0  0  0  0  0  0  0  0  0  0  0  0
    4.9880   -8.5890  -27.1130 H   0  0  0  0  0  0  0  0  0  0  0  0
    1.9110   -7.3420  -27.3150 C   0  0  0  0  0  0  0  0  0  0  0  0
    1.1210   -8.4640  -27.0370 C   0  0  0  0  0  3  0  0  0  0  0  0
   -0.2730   -8.3310  -26.9270 C   0  0  0  0  0  0  0  0  0  0  0  0
   -0.8510   -7.0620  -27.1150 C   0  0  0  0  0  3  0  0  0  0  0  0
   -0.0590   -5.9560  -27.4360 C   0  0  0  0  0  3  0  0  0  0  0  0
    1.3180   -6.1060  -27.5580 C   0  0  0  0  0  0  0  0  0  0  0  0
    2.0610   -5.0320  -27.8670 F   0  0  0  0  0  0  0  0  0  0  0  0
   -1.1300   -9.5430  -26.6400 C   0  0  0  0  0  0  0  0  0  0  0  0
   -0.3880  -10.6090  -26.2340 F   0  0  0  0  0  0  0  0  0  0  0  0
   -2.0460   -9.3230  -25.6600 F   0  0  0  0  0  0  0  0  0  0  0  0
   -1.8360   -9.9700  -27.7240 F   0  0  0  0  0  0  0  0  0  0  0  0
    3.3480  -12.9590  -23.6780 C   0  0  0  0  0  1  0  0  0  0  0  0
    2.1580  -12.2230  -24.3060 C   0  0  1  0  0  3  0  0  0  0  0  0
    1.7140  -11.1440  -23.3970 N   0  0  0  0  0  0  0  0  0  0  0  0
    2.1090  -10.2380  -23.6380 H   0  0  0  0  0  0  0  0  0  0  0  0
    0.3900  -10.9260  -23.0470 C   0  0  0  0  0  0  0  0  0  0  0  0
   -0.2020  -12.0340  -22.5740 N   0  0  0  0  0  0  0  0  0  0  0  0
   -1.3870  -11.8640  -21.9930 C   0  0  0  0  0  3  0  0  0  0  0  0
   -2.0220  -10.6990  -21.8190 N   0  0  0  0  0  0  0  0  0  0  0  0
   -1.4590   -9.5870  -22.3460 C   0  0  0  0  0  0  0  0  0  0  0  0
   -2.0290   -8.3050  -22.1910 C   0  0  0  0  0  0  0  0  0  0  0  0
   -1.4610   -7.1700  -22.8010 C   0  0  0  0  0  3  0  0  0  0  0  0
   -0.3300   -7.2880  -23.5920 C   0  0  0  0  0  3  0  0  0  0  0  0
    0.2690   -8.5340  -23.7230 C   0  0  0  0  0  3  0  0  0  0  0  0
   -0.2500   -9.6730  -23.0610 C   0  0  0  0  0  0  0  0  0  0  0  0
   -3.2400   -8.0460  -21.3520 C   0  0  0  0  0  0  0  0  0  0  0  0
   -3.0670   -7.7320  -20.0360 N   0  0  0  0  0  0  0  0  0  0  0  0
   -4.3700   -8.1050  -21.8210 O   0  0  0  0  0  0  0  0  0  0  0  0
   -3.8780   -7.5570  -19.4620 H   0  0  0  0  0  0  0  0  0  0  0  0
   -2.1350   -7.6550  -19.6390 H   0  0  0  0  0  0  0  0  0  0  0  0
  1 23  1  0  0  0  0
  2  1  2  0  0  0  0
  3  2  1  0  0  0  0
  4  3  2  0  0  0  0
  4  5  1  0  0  0  0
  5  6  2  0  0  0  0
  6  1  1  0  0  0  0
  7  5  1  0  0  0  0
  7 10  1  0  0  0  0
  8 11  1  0  0  0  0
  8  7  1  0  0  0  0
  9  8  2  0  0  0  0
 11 12  1  0  0  0  0
 12 13  2  0  0  0  0
 13 18  1  0  0  0  0
 14 13  1  0  0  0  0
 15 14  2  0  0  0  0
 16 15  1  0  0  0  0
 16 11  2  0  0  0  0
 17 16  1  0  0  0  0
 18 19  1  0  0  0  0
 18 20  1  0  0  0  0
 21 18  1  0  0  0  0
 23 22  1  1  0  0  0
 23 24  1  0  0  0  0
 24 26  1  0  0  0  0
 25 24  1  0  0  0  0
 26 27  1  0  0  0  0
 27 28  2  0  0  0  0
 28 29  1  0  0  0  0
 30 31  1  0  0  0  0
 30 29  2  0  0  0  0
 31 36  1  0  0  0  0
 32 31  2  0  0  0  0
 33 32  1  0  0  0  0
 34 33  2  0  0  0  0
 34 35  1  0  0  0  0
 35 26  2  0  0  0  0
 35 30  1  0  0  0  0
 36 37  1  0  0  0  0
 37 40  1  0  0  0  0
 37 39  1  0  0  0  0
 38 36  2  0  0  0  0
M  END
>  <minimizedAffinity>
-7.69927025

$$$$
