
 OpenBabel10152419503D

 40 43  0  0  1  0  0  0  0  0999 V2000
    0.8250   -6.6240  -25.0990 C   0  0  0  0  0  0  0  0  0  0  0  0
    0.3510   -5.8690  -26.1790 C   0  0  0  0  0  3  0  0  0  0  0  0
    0.8830   -6.0640  -27.4490 C   0  0  0  0  0  3  0  0  0  0  0  0
    1.9160   -6.9840  -27.6440 C   0  0  0  0  0  3  0  0  0  0  0  0
    2.5030   -7.6440  -26.5670 C   0  0  0  0  0  0  0  0  0  0  0  0
    1.9540   -7.4430  -25.2930 C   0  0  0  0  0  3  0  0  0  0  0  0
    3.5530   -8.5800  -26.6520 N   0  0  0  0  0  0  0  0  0  0  0  0
    3.6210   -9.9440  -26.4910 C   0  0  0  0  0  0  0  0  0  0  0  0
    4.7190  -10.4950  -26.4180 O   0  0  0  0  0  0  0  0  0  0  0  0
    4.4750   -8.2010  -26.8340 H   0  0  0  0  0  0  0  0  0  0  0  0
    2.4250  -10.7830  -26.3960 C   0  0  0  0  0  0  0  0  0  0  0  0
    1.1650  -10.1710  -26.4230 C   0  0  0  0  0  3  0  0  0  0  0  0
    0.0030  -10.9580  -26.3940 C   0  0  0  0  0  0  0  0  0  0  0  0
    0.1300  -12.3570  -26.3250 C   0  0  0  0  0  3  0  0  0  0  0  0
    1.3910  -12.9570  -26.2540 C   0  0  0  0  0  3  0  0  0  0  0  0
    2.5340  -12.1650  -26.2660 C   0  0  0  0  0  0  0  0  0  0  0  0
    3.7340  -12.7600  -26.1970 F   0  0  0  0  0  0  0  0  0  0  0  0
   -1.3580  -10.3000  -26.4090 C   0  0  0  0  0  0  0  0  0  0  0  0
   -1.2860   -8.9690  -26.1350 F   0  0  0  0  0  0  0  0  0  0  0  0
   -1.9830  -10.4060  -27.6120 F   0  0  0  0  0  0  0  0  0  0  0  0
   -2.2180  -10.8240  -25.4920 F   0  0  0  0  0  0  0  0  0  0  0  0
   -0.6450   -5.3760  -23.4860 C   0  0  0  0  0  1  0  0  0  0  0  0
    0.0560   -6.7070  -23.7870 C   0  0  1  0  0  3  0  0  0  0  0  0
   -0.9320   -7.8070  -23.7180 N   0  0  0  0  0  0  0  0  0  0  0  0
   -0.7830   -8.5140  -24.4340 H   0  0  0  0  0  0  0  0  0  0  0  0
   -1.2590   -8.4780  -22.5500 C   0  0  0  0  0  0  0  0  0  0  0  0
   -2.0300   -7.7400  -21.7370 N   0  0  0  0  0  0  0  0  0  0  0  0
   -2.5890   -8.3830  -20.7140 C   0  0  0  0  0  3  0  0  0  0  0  0
   -2.4700   -9.6880  -20.4420 N   0  0  0  0  0  0  0  0  0  0  0  0
   -1.6470  -10.4250  -21.2220 C   0  0  0  0  0  0  0  0  0  0  0  0
   -1.4760  -11.8140  -21.0410 C   0  0  0  0  0  0  0  0  0  0  0  0
   -0.5670  -12.5510  -21.8240 C   0  0  0  0  0  3  0  0  0  0  0  0
    0.2050  -11.9200  -22.7860 C   0  0  0  0  0  3  0  0  0  0  0  0
    0.0230  -10.5620  -23.0070 C   0  0  0  0  0  3  0  0  0  0  0  0
   -0.9370   -9.8200  -22.2750 C   0  0  0  0  0  0  0  0  0  0  0  0
   -2.2610  -12.6110  -20.0460 C   0  0  0  0  0  0  0  0  0  0  0  0
   -3.5440  -12.9530  -20.3520 N   0  0  0  0  0  0  0  0  0  0  0  0
   -1.7740  -12.9590  -18.9780 O   0  0  0  0  0  0  0  0  0  0  0  0
   -4.0810  -13.4890  -19.6860 H   0  0  0  0  0  0  0  0  0  0  0  0
   -3.9540  -12.6920  -21.2450 H   0  0  0  0  0  0  0  0  0  0  0  0
  1 23  1  0  0  0  0
  2  1  2  0  0  0  0
  3  2  1  0  0  0  0
  4  3  2  0  0  0  0
  4  5  1  0  0  0  0
  5  6  2  0  0  0  0
  6  1  1  0  0  0  0
  7  5  1  0  0  0  0
  7  8  1  0  0  0  0
  8  9  2  0  0  0  0
  8 11  1  0  0  0  0
 10  7  1  0  0  0  0
 11 16  1  0  0  0  0
 12 11  2  0  0  0  0
 12 13  1  0  0  0  0
 13 14  2  0  0  0  0
 14 15  1  0  0  0  0
 16 15  2  0  0  0  0
 16 17  1  0  0  0  0
 18 13  1  0  0  0  0
 18 19  1  0  0  0  0
 18 21  1  0  0  0  0
 20 18  1  0  0  0  0
 23 24  1  0  0  0  0
 23 22  1  6  0  0  0
 24 26  1  0  0  0  0
 25 24  1  0  0  0  0
 26 35  2  0  0  0  0
 26 27  1  0  0  0  0
 27 28  2  0  0  0  0
 28 29  1  0  0  0  0
 30 31  1  0  0  0  0
 30 29  2  0  0  0  0
 31 36  1  0  0  0  0
 32 31  2  0  0  0  0
 33 32  1  0  0  0  0
 34 33  2  0  0  0  0
 34 35  1  0  0  0  0
 35 30  1  0  0  0  0
 36 38  2  0  0  0  0
 37 36  1  0  0  0  0
 37 39  1  0  0  0  0
 40 37  1  0  0  0  0
M  END
>  <minimizedAffinity>
-9.82306004

$$$$
