REMARK  Name = 
REMARK  8 active torsions:
REMARK  status: ('A' for Active; 'I' for Inactive)
REMARK    1  A    between atoms: C_1  and  C_2
REMARK    2  A    between atoms: C_2  and  N_3
REMARK    3  A    between atoms: C_2  and  C_17
REMARK    4  A    between atoms: N_3  and  C_4
REMARK    5  A    between atoms: C_9  and  C_10
REMARK    6  A    between atoms: C_21  and  N_22
REMARK    7  A    between atoms: C_23  and  C_25
REMARK    8  A    between atoms: C_27  and  C_28
REMARK                            x       y       z     vdW  Elec       q    Type
REMARK                         _______ _______ _______ _____ _____    ______ ____
ROOT
ATOM      1  C   UNL     1      -0.951  -0.543   1.049  0.00  0.00    -0.026 A 
ATOM      2  C   UNL     1      -1.528   0.728   1.162  0.00  0.00    +0.005 A 
ATOM      3  C   UNL     1      -2.900   0.853   1.350  0.00  0.00    +0.002 A 
ATOM      4  C   UNL     1      -3.711  -0.284   1.386  0.00  0.00    +0.023 A 
ATOM      5  C   UNL     1      -3.185  -1.549   1.134  0.00  0.00    +0.034 A 
ATOM      6  C   UNL     1      -1.800  -1.663   0.953  0.00  0.00    +0.028 A 
ENDROOT
BRANCH   5   7
ATOM      7  N   UNL     1      -3.913  -2.756   1.137  0.00  0.00    -0.281 N 
ATOM      8  C   UNL     1      -5.251  -3.055   1.236  0.00  0.00    +0.251 C 
ATOM      9  O   UNL     1      -5.604  -4.219   1.421  0.00  0.00    -0.270 OA
ATOM     10  H   UNL     1      -3.365  -3.607   1.093  0.00  0.00    +0.155 HD
BRANCH   8  11
ATOM     11  C   UNL     1      -6.293  -2.031   1.136  0.00  0.00    +0.073 A 
ATOM     12  C   UNL     1      -7.177  -1.858   2.209  0.00  0.00    +0.028 A 
ATOM     13  C   UNL     1      -8.146  -0.843   2.163  0.00  0.00    +0.056 A 
ATOM     14  C   UNL     1      -8.217  -0.022   1.023  0.00  0.00    +0.015 A 
ATOM     15  C   UNL     1      -7.360  -0.230  -0.062  0.00  0.00    +0.039 A 
ATOM     16  C   UNL     1      -6.416  -1.250  -0.010  0.00  0.00    +0.136 A 
ATOM     17  F   UNL     1      -5.603  -1.433  -1.061  0.00  0.00    -0.205 F 
BRANCH  13  18
ATOM     18  C   UNL     1      -9.110  -0.663   3.314  0.00  0.00    +0.417 C 
ATOM     19  F   UNL     1     -10.064  -1.633   3.339  0.00  0.00    -0.166 F 
ATOM     20  F   UNL     1      -8.498  -0.701   4.527  0.00  0.00    -0.166 F 
ATOM     21  F   UNL     1      -9.782   0.521   3.270  0.00  0.00    -0.166 F 
ENDBRANCH  13  18
ENDBRANCH   8  11
ENDBRANCH   5   7
BRANCH   1  23
ATOM     22  C   UNL     1       1.306  -0.067   0.050  0.00  0.00    +0.033 C 
ATOM     23  C   UNL     1       0.551  -0.752   1.196  0.00  0.00    +0.099 C 
BRANCH  23  24
ATOM     24  N   UNL     1       1.113  -0.305   2.490  0.00  0.00    -0.322 N 
ATOM     25  H   UNL     1       1.873   0.362   2.379  0.00  0.00    +0.148 HD
BRANCH  24  26
ATOM     26  C   UNL     1       0.342   0.134   3.555  0.00  0.00    +0.130 A 
ATOM     27  N   UNL     1       0.597   1.411   3.878  0.00  0.00    -0.220 NA
ATOM     28  C   UNL     1      -0.258   1.986   4.720  0.00  0.00    +0.223 A 
ATOM     29  N   UNL     1      -1.349   1.419   5.248  0.00  0.00    -0.235 NA
ATOM     30  C   UNL     1      -1.579   0.114   4.974  0.00  0.00    +0.088 A 
ATOM     31  C   UNL     1      -2.717  -0.570   5.453  0.00  0.00    +0.063 A 
ATOM     32  C   UNL     1      -2.905  -1.944   5.209  0.00  0.00    +0.015 A 
ATOM     33  C   UNL     1      -1.959  -2.669   4.503  0.00  0.00    +0.002 A 
ATOM     34  C   UNL     1      -0.853  -2.006   3.989  0.00  0.00    +0.013 A 
ATOM     35  C   UNL     1      -0.683  -0.611   4.167  0.00  0.00    +0.041 A 
BRANCH  31  36
ATOM     36  C   UNL     1      -3.815   0.104   6.214  0.00  0.00    +0.244 C 
ATOM     37  N   UNL     1      -3.635   1.396   6.611  0.00  0.00    -0.325 N 
ATOM     38  O   UNL     1      -4.861  -0.476   6.479  0.00  0.00    -0.270 OA
ATOM     39  H   UNL     1      -4.370   1.858   7.126  0.00  0.00    +0.145 HD
ATOM     40  H   UNL     1      -2.783   1.898   6.377  0.00  0.00    +0.145 HD
ENDBRANCH  31  36
ENDBRANCH  24  26
ENDBRANCH  23  24
ENDBRANCH   1  23
TORSDOF 7
