
 OpenBabel10152418253D

 40 43  0  0  0  0  0  0  0  0999 V2000
    4.0780   -8.5410  -28.6970 C   0  0  0  0  0  0  0  0  0  0  0  0
    4.9470   -7.8770  -27.8300 C   0  0  0  0  0  3  0  0  0  0  0  0
    4.7110   -6.5500  -27.4890 C   0  0  0  0  0  3  0  0  0  0  0  0
    3.5870   -5.8950  -27.9890 C   0  0  0  0  0  3  0  0  0  0  0  0
    2.6460   -6.5630  -28.7860 C   0  0  0  0  0  0  0  0  0  0  0  0
    2.9070   -7.8990  -29.1290 C   0  0  0  0  0  3  0  0  0  0  0  0
    4.2640  -11.0510  -28.4340 C   0  0  0  0  0  0  0  0  0  0  0  0
    4.9040  -12.0390  -28.7900 O   0  0  0  0  0  0  0  0  0  0  0  0
    4.4370   -9.8470  -29.0760 N   0  0  0  0  0  0  0  0  0  0  0  0
    4.9010   -9.9520  -29.9720 H   0  0  0  0  0  0  0  0  0  0  0  0
    0.1670  -11.8370  -24.6420 N   0  0  0  0  0  0  0  0  0  0  0  0
   -1.1520  -12.0310  -25.2330 C   0  0  0  0  0  1  0  0  0  0  0  0
    1.2070  -11.5920  -25.5170 C   0  0  0  0  0  0  0  0  0  0  0  0
    2.5130  -11.3320  -25.0960 C   0  0  0  0  0  3  0  0  0  0  0  0
    3.5350  -11.1280  -26.0270 C   0  0  0  0  0  3  0  0  0  0  0  0
    3.2450  -11.2130  -27.3830 C   0  0  0  0  0  0  0  0  0  0  0  0
    1.9290  -11.4190  -27.7420 C   0  0  0  0  0  3  0  0  0  0  0  0
    0.9300  -11.6210  -26.8450 N   0  0  0  0  0  0  0  0  0  0  0  0
    0.3120  -12.0380  -23.1990 C   0  0  0  0  0  2  0  0  0  0  0  0
   -0.9410  -11.6490  -22.3980 C   0  0  0  0  0  2  0  0  0  0  0  0
   -1.7360   -9.9710  -20.9090 C   0  0  0  0  0  1  0  0  0  0  0  0
   -1.0510  -10.2520  -22.1210 O   0  0  0  0  0  0  0  0  0  0  0  0
    1.4110   -5.8520  -29.3270 C   0  0  0  0  0  2  0  0  0  0  0  0
    1.1430   -4.5980  -28.6460 N   0  0  0  0  0  0  0  0  0  0  0  0
    1.5880   -3.7580  -28.9770 H   0  0  0  0  0  0  0  0  0  0  0  0
    0.1680   -4.5410  -27.6620 C   0  0  0  0  0  0  0  0  0  0  0  0
   -0.2740   -3.3210  -27.3120 N   0  0  0  0  0  0  0  0  0  0  0  0
   -0.9030   -3.2200  -26.1440 C   0  0  0  0  0  3  0  0  0  0  0  0
   -1.0400   -4.2030  -25.2540 N   0  0  0  0  0  0  0  0  0  0  0  0
   -0.6570   -5.4390  -25.6310 C   0  0  0  0  0  0  0  0  0  0  0  0
   -0.7290   -6.5270  -24.7550 C   0  0  0  0  0  0  0  0  0  0  0  0
   -0.4790   -7.8470  -25.1550 C   0  0  0  0  0  3  0  0  0  0  0  0
   -0.0630   -8.0980  -26.4520 C   0  0  0  0  0  3  0  0  0  0  0  0
    0.1570   -7.0220  -27.3060 C   0  0  0  0  0  3  0  0  0  0  0  0
   -0.1240   -5.6880  -26.9020 C   0  0  0  0  0  0  0  0  0  0  0  0
   -0.9170   -6.3080  -23.3070 C   0  0  0  0  0  0  0  0  0  0  0  0
    0.0350   -5.5260  -22.7090 N   0  0  0  0  0  0  0  0  0  0  0  0
   -1.7850   -6.8890  -22.6720 O   0  0  0  0  0  0  0  0  0  0  0  0
   -0.0140   -5.3840  -21.7110 H   0  0  0  0  0  0  0  0  0  0  0  0
    0.7680   -5.0670  -23.2340 H   0  0  0  0  0  0  0  0  0  0  0  0
  1  2  1  0  0  0  0
  2  3  2  0  0  0  0
  4  3  1  0  0  0  0
  5  4  2  0  0  0  0
  6  5  1  0  0  0  0
  6  1  2  0  0  0  0
  7 16  1  0  0  0  0
  8  7  2  0  0  0  0
  9  1  1  0  0  0  0
  9  7  1  0  0  0  0
 10  9  1  0  0  0  0
 11 19  1  0  0  0  0
 12 11  1  0  0  0  0
 13 14  1  0  0  0  0
 13 11  1  0  0  0  0
 15 14  2  0  0  0  0
 16 15  1  0  0  0  0
 17 16  2  0  0  0  0
 17 18  1  0  0  0  0
 18 13  2  0  0  0  0
 19 20  1  0  0  0  0
 20 22  1  0  0  0  0
 22 21  1  0  0  0  0
 23  5  1  0  0  0  0
 23 24  1  0  0  0  0
 24 26  1  0  0  0  0
 25 24  1  0  0  0  0
 26 27  2  0  0  0  0
 26 35  1  0  0  0  0
 27 28  1  0  0  0  0
 28 29  2  0  0  0  0
 30 29  1  0  0  0  0
 30 31  1  0  0  0  0
 31 36  1  0  0  0  0
 32 31  2  0  0  0  0
 33 32  1  0  0  0  0
 34 35  1  0  0  0  0
 34 33  2  0  0  0  0
 35 30  2  0  0  0  0
 36 37  1  0  0  0  0
 36 38  2  0  0  0  0
 37 39  1  0  0  0  0
 40 37  1  0  0  0  0
M  END
>  <minimizedAffinity>
-6.07845974

$$$$
