
 OpenBabel10152418253D

 40 43  0  0  0  0  0  0  0  0999 V2000
    1.1050  -11.6420  -25.9150 C   0  0  0  0  0  0  0  0  0  0  0  0
    1.2050  -11.9760  -24.5630 C   0  0  0  0  0  3  0  0  0  0  0  0
    2.4520  -12.0380  -23.9520 C   0  0  0  0  0  3  0  0  0  0  0  0
    3.5990  -11.7350  -24.6840 C   0  0  0  0  0  3  0  0  0  0  0  0
    3.5230  -11.3060  -26.0170 C   0  0  0  0  0  0  0  0  0  0  0  0
    2.2560  -11.2610  -26.6200 C   0  0  0  0  0  3  0  0  0  0  0  0
   -1.3900  -11.2370  -26.0310 C   0  0  0  0  0  0  0  0  0  0  0  0
   -2.4360  -11.6420  -26.5360 O   0  0  0  0  0  0  0  0  0  0  0  0
   -0.1780  -11.7000  -26.4880 N   0  0  0  0  0  0  0  0  0  0  0  0
   -0.2550  -12.1510  -27.3930 H   0  0  0  0  0  0  0  0  0  0  0  0
   -1.5250   -7.4140  -21.8910 N   0  0  0  0  0  0  0  0  0  0  0  0
   -1.4960   -7.9930  -20.5530 C   0  0  0  0  0  1  0  0  0  0  0  0
   -1.5410   -8.3000  -22.9500 C   0  0  0  0  0  0  0  0  0  0  0  0
   -1.6240   -7.8940  -24.2830 C   0  0  0  0  0  3  0  0  0  0  0  0
   -1.6000   -8.8340  -25.3180 C   0  0  0  0  0  3  0  0  0  0  0  0
   -1.4640  -10.1810  -25.0070 C   0  0  0  0  0  0  0  0  0  0  0  0
   -1.4400  -10.5290  -23.6730 C   0  0  0  0  0  3  0  0  0  0  0  0
   -1.4600   -9.6240  -22.6620 N   0  0  0  0  0  0  0  0  0  0  0  0
   -1.4070   -5.9590  -22.0150 C   0  0  0  0  0  2  0  0  0  0  0  0
   -0.3320   -5.5160  -23.0200 C   0  0  0  0  0  2  0  0  0  0  0  0
   -0.9960   -4.4830  -25.0590 C   0  0  0  0  0  1  0  0  0  0  0  0
   -0.6310   -4.2950  -23.6990 O   0  0  0  0  0  0  0  0  0  0  0  0
    4.7750  -10.9650  -26.8170 C   0  0  0  0  0  2  0  0  0  0  0  0
    4.9040   -9.5420  -27.0760 N   0  0  0  0  0  0  0  0  0  0  0  0
    5.7220   -9.0590  -26.7470 H   0  0  0  0  0  0  0  0  0  0  0  0
    3.9900   -8.9060  -27.9020 C   0  0  0  0  0  0  0  0  0  0  0  0
    4.2690   -8.8840  -29.2160 N   0  0  0  0  0  0  0  0  0  0  0  0
    3.6300   -7.9790  -29.9540 C   0  0  0  0  0  3  0  0  0  0  0  0
    2.8190   -7.0330  -29.4810 N   0  0  0  0  0  0  0  0  0  0  0  0
    2.4870   -7.0950  -28.1760 C   0  0  0  0  0  0  0  0  0  0  0  0
    1.6700   -6.1280  -27.5810 C   0  0  0  0  0  0  0  0  0  0  0  0
    1.1880   -6.2380  -26.2690 C   0  0  0  0  0  3  0  0  0  0  0  0
    1.5900   -7.3040  -25.4840 C   0  0  0  0  0  3  0  0  0  0  0  0
    2.5160   -8.2070  -25.9990 C   0  0  0  0  0  3  0  0  0  0  0  0
    2.9810   -8.1040  -27.3390 C   0  0  0  0  0  0  0  0  0  0  0  0
    1.4090   -4.8470  -28.2670 C   0  0  0  0  0  0  0  0  0  0  0  0
    0.4820   -4.9060  -29.2740 N   0  0  0  0  0  0  0  0  0  0  0  0
    2.0680   -3.8440  -28.0380 O   0  0  0  0  0  0  0  0  0  0  0  0
    0.3000   -4.0710  -29.8120 H   0  0  0  0  0  0  0  0  0  0  0  0
   -0.0440   -5.7450  -29.4790 H   0  0  0  0  0  0  0  0  0  0  0  0
  1  2  1  0  0  0  0
  2  3  2  0  0  0  0
  4  3  1  0  0  0  0
  5  4  2  0  0  0  0
  6  5  1  0  0  0  0
  6  1  2  0  0  0  0
  7 16  1  0  0  0  0
  8  7  2  0  0  0  0
  9  7  1  0  0  0  0
  9  1  1  0  0  0  0
 10  9  1  0  0  0  0
 11 12  1  0  0  0  0
 13 18  1  0  0  0  0
 13 11  1  0  0  0  0
 14 13  2  0  0  0  0
 15 16  2  0  0  0  0
 15 14  1  0  0  0  0
 16 17  1  0  0  0  0
 17 18  2  0  0  0  0
 19 11  1  0  0  0  0
 20 19  1  0  0  0  0
 21 22  1  0  0  0  0
 22 20  1  0  0  0  0
 23  5  1  0  0  0  0
 24 23  1  0  0  0  0
 24 25  1  0  0  0  0
 26 35  1  0  0  0  0
 26 24  1  0  0  0  0
 27 26  2  0  0  0  0
 28 29  2  0  0  0  0
 28 27  1  0  0  0  0
 29 30  1  0  0  0  0
 30 31  2  0  0  0  0
 30 35  1  0  0  0  0
 31 32  1  0  0  0  0
 32 33  2  0  0  0  0
 34 33  1  0  0  0  0
 35 34  2  0  0  0  0
 36 38  2  0  0  0  0
 36 31  1  0  0  0  0
 37 36  1  0  0  0  0
 39 37  1  0  0  0  0
 40 37  1  0  0  0  0
M  END
>  <minimizedAffinity>
-5.349895

$$$$
