REMARK  Name = 
REMARK  11 active torsions:
REMARK  status: ('A' for Active; 'I' for Inactive)
REMARK    1  A    between atoms: C_1  and  O_2
REMARK    2  A    between atoms: O_2  and  C_3
REMARK    3  A    between atoms: C_3  and  C_4
REMARK    4  A    between atoms: C_4  and  N_5
REMARK    5  A    between atoms: N_5  and  C_6
REMARK    6  A    between atoms: C_10  and  C_11
REMARK    7  A    between atoms: N_13  and  C_14
REMARK    8  A    between atoms: C_18  and  C_19
REMARK    9  A    between atoms: C_19  and  N_20
REMARK   10  A    between atoms: N_20  and  C_21
REMARK   11  A    between atoms: C_26  and  C_27
REMARK                            x       y       z     vdW  Elec       q    Type
REMARK                         _______ _______ _______ _____ _____    ______ ____
ROOT
ATOM      1  C   UNL     1       1.009   1.386   3.495  0.00  0.00    +0.034 A 
ATOM      2  C   UNL     1       0.634   0.767   4.689  0.00  0.00    +0.023 A 
ATOM      3  C   UNL     1       0.977  -0.559   4.923  0.00  0.00    +0.002 A 
ATOM      4  C   UNL     1       1.723  -1.260   3.977  0.00  0.00    +0.005 A 
ATOM      5  C   UNL     1       2.194  -0.639   2.811  0.00  0.00    -0.029 A 
ATOM      6  C   UNL     1       1.828   0.698   2.587  0.00  0.00    +0.028 A 
ENDROOT
BRANCH   1   9
ATOM      7  C   UNL     1       0.360   3.412   2.125  0.00  0.00    +0.250 C 
ATOM      8  O   UNL     1       0.220   4.633   2.169  0.00  0.00    -0.270 OA
ATOM      9  N   UNL     1       0.539   2.695   3.285  0.00  0.00    -0.281 N 
ATOM     10  H   UNL     1       0.277   3.225   4.109  0.00  0.00    +0.155 HD
BRANCH   7  16
ATOM     11  N   UNL     1       0.151   0.977  -2.955  0.00  0.00    -0.316 N 
ATOM     12  C   UNL     1       0.860   1.717  -3.992  0.00  0.00    +0.130 C 
ATOM     13  C   UNL     1       0.125   1.545  -1.696  0.00  0.00    +0.121 A 
ATOM     14  C   UNL     1      -0.561   0.981  -0.619  0.00  0.00    +0.044 A 
ATOM     15  C   UNL     1      -0.523   1.581   0.643  0.00  0.00    +0.018 A 
ATOM     16  C   UNL     1       0.230   2.734   0.824  0.00  0.00    +0.055 A 
ATOM     17  C   UNL     1       0.843   3.276  -0.286  0.00  0.00    +0.126 A 
ATOM     18  N   UNL     1       0.814   2.700  -1.515  0.00  0.00    -0.240 NA
BRANCH  11  19
ATOM     19  C   UNL     1      -0.364  -0.353  -3.287  0.00  0.00    +0.134 C 
BRANCH  19  20
ATOM     20  C   UNL     1       0.739  -1.409  -3.466  0.00  0.00    +0.178 C 
BRANCH  20  22
ATOM     21  C   UNL     1       2.493  -1.031  -1.902  0.00  0.00    +0.194 C 
ATOM     22  O   UNL     1       1.363  -1.819  -2.248  0.00  0.00    -0.381 OA
ENDBRANCH  20  22
ENDBRANCH  19  20
ENDBRANCH  11  19
ENDBRANCH   7  16
ENDBRANCH   1   9
BRANCH   5  23
ATOM     23  C   UNL     1       3.018  -1.400   1.779  0.00  0.00    +0.138 C 
BRANCH  23  24
ATOM     24  N   UNL     1       4.309  -1.821   2.293  0.00  0.00    -0.324 N 
ATOM     25  H   UNL     1       5.116  -1.248   2.113  0.00  0.00    +0.148 HD
BRANCH  24  26
ATOM     26  C   UNL     1       4.389  -2.907   3.151  0.00  0.00    +0.130 A 
ATOM     27  N   UNL     1       3.492  -3.892   2.971  0.00  0.00    -0.220 NA
ATOM     28  C   UNL     1       3.307  -4.732   3.987  0.00  0.00    +0.223 A 
ATOM     29  N   UNL     1       3.860  -4.615   5.194  0.00  0.00    -0.235 NA
ATOM     30  C   UNL     1       4.807  -3.670   5.355  0.00  0.00    +0.088 A 
ATOM     31  C   UNL     1       5.419  -3.448   6.593  0.00  0.00    +0.063 A 
ATOM     32  C   UNL     1       6.505  -2.578   6.763  0.00  0.00    +0.015 A 
ATOM     33  C   UNL     1       6.957  -1.835   5.686  0.00  0.00    +0.002 A 
ATOM     34  C   UNL     1       6.277  -1.926   4.475  0.00  0.00    +0.013 A 
ATOM     35  C   UNL     1       5.193  -2.830   4.302  0.00  0.00    +0.041 A 
BRANCH  31  36
ATOM     36  C   UNL     1       4.832  -4.009   7.826  0.00  0.00    +0.244 C 
ATOM     37  N   UNL     1       3.548  -3.612   8.091  0.00  0.00    -0.325 N 
ATOM     38  O   UNL     1       5.491  -4.672   8.613  0.00  0.00    -0.270 OA
ATOM     39  H   UNL     1       3.113  -3.924   8.947  0.00  0.00    +0.145 HD
ATOM     40  H   UNL     1       3.013  -3.041   7.450  0.00  0.00    +0.145 HD
ENDBRANCH  31  36
ENDBRANCH  24  26
ENDBRANCH  23  24
ENDBRANCH   5  23
TORSDOF 9
