
 OpenBabel10152418253D

 35 38  0  0  0  0  0  0  0  0999 V2000
   -0.1980   -5.7620  -24.3190 C   0  0  0  0  0  2  0  0  0  0  0  0
   -2.0050   -9.0550  -23.7450 C   0  0  0  0  0  0  0  0  0  0  0  0
   -2.4800   -8.9120  -22.4440 C   0  0  0  0  0  3  0  0  0  0  0  0
   -2.1520   -7.7660  -21.7120 C   0  0  0  0  0  3  0  0  0  0  0  0
   -1.3990   -6.7440  -22.3000 C   0  0  0  0  0  3  0  0  0  0  0  0
   -0.9280   -6.8810  -23.6100 C   0  0  0  0  0  0  0  0  0  0  0  0
   -1.1720   -8.0780  -24.2960 C   0  0  0  0  0  3  0  0  0  0  0  0
   -1.5980  -11.0420  -25.2490 C   0  0  0  0  0  0  0  0  0  0  0  0
   -2.1630  -11.7450  -26.0920 O   0  0  0  0  0  0  0  0  0  0  0  0
   -2.3580  -10.1080  -24.5890 N   0  0  0  0  0  0  0  0  0  0  0  0
   -3.3470  -10.3070  -24.6850 H   0  0  0  0  0  0  0  0  0  0  0  0
   -0.4220  -12.0370  -22.4680 C   0  0  0  0  0  1  0  0  0  0  0  0
    0.3710  -11.7700  -23.7160 C   0  0  0  0  0  0  0  0  0  0  0  0
    1.7540  -12.0380  -23.6300 C   0  0  0  0  0  3  0  0  0  0  0  0
    2.5760  -11.9810  -24.7530 C   0  0  0  0  0  3  0  0  0  0  0  0
    2.0370  -11.6310  -25.9820 C   0  0  0  0  0  3  0  0  0  0  0  0
    0.6860  -11.2930  -26.0730 C   0  0  0  0  0  3  0  0  0  0  0  0
   -0.1600  -11.3250  -24.9460 C   0  0  0  0  0  0  0  0  0  0  0  0
    1.0380   -6.2870  -24.8590 N   0  0  0  0  0  0  0  0  0  0  0  0
    1.3750   -7.1120  -24.3860 H   0  0  0  0  0  0  0  0  0  0  0  0
    1.3230   -6.2090  -26.2200 C   0  0  0  0  0  0  0  0  0  0  0  0
    0.7030   -5.2640  -26.9430 N   0  0  0  0  0  0  0  0  0  0  0  0
    1.0030   -5.2130  -28.2390 C   0  0  0  0  0  3  0  0  0  0  0  0
    1.8570   -6.0140  -28.8760 N   0  0  0  0  0  0  0  0  0  0  0  0
    2.5170   -6.9500  -28.1740 C   0  0  0  0  0  0  0  0  0  0  0  0
    3.4560   -7.8280  -28.7700 C   0  0  0  0  0  0  0  0  0  0  0  0
    4.1220   -8.8020  -27.9990 C   0  0  0  0  0  3  0  0  0  0  0  0
    3.8780   -8.9190  -26.6390 C   0  0  0  0  0  3  0  0  0  0  0  0
    2.9720   -8.0600  -26.0410 C   0  0  0  0  0  3  0  0  0  0  0  0
    2.2760   -7.0810  -26.7910 C   0  0  0  0  0  0  0  0  0  0  0  0
    3.7710   -7.7060  -30.2390 C   0  0  0  0  0  0  0  0  0  0  0  0
    4.7720   -6.8480  -30.6250 N   0  0  0  0  0  0  0  0  0  0  0  0
    3.1870   -8.3130  -31.1250 O   0  0  0  0  0  0  0  0  0  0  0  0
    4.9380   -6.7930  -31.6220 H   0  0  0  0  0  0  0  0  0  0  0  0
    5.3640   -6.3000  -30.0250 H   0  0  0  0  0  0  0  0  0  0  0  0
  1  6  1  0  0  0  0
  2  3  1  0  0  0  0
  3  4  2  0  0  0  0
  5  4  1  0  0  0  0
  6  5  2  0  0  0  0
  7  2  2  0  0  0  0
  7  6  1  0  0  0  0
  8 18  1  0  0  0  0
  8 10  1  0  0  0  0
  9  8  2  0  0  0  0
 10  2  1  0  0  0  0
 11 10  1  0  0  0  0
 13 14  1  0  0  0  0
 13 12  1  0  0  0  0
 15 14  2  0  0  0  0
 16 15  1  0  0  0  0
 17 16  2  0  0  0  0
 17 18  1  0  0  0  0
 18 13  2  0  0  0  0
 19 20  1  0  0  0  0
 19  1  1  0  0  0  0
 21 19  1  0  0  0  0
 22 21  2  0  0  0  0
 23 22  1  0  0  0  0
 24 23  2  0  0  0  0
 24 25  1  0  0  0  0
 25 30  1  0  0  0  0
 26 25  2  0  0  0  0
 26 27  1  0  0  0  0
 27 28  2  0  0  0  0
 28 29  1  0  0  0  0
 30 21  1  0  0  0  0
 30 29  2  0  0  0  0
 31 26  1  0  0  0  0
 32 31  1  0  0  0  0
 32 35  1  0  0  0  0
 33 31  2  0  0  0  0
 34 32  1  0  0  0  0
M  END
>  <minimizedAffinity>
-8.22262955

$$$$
