
 OpenBabel10152418363D

 38 41  0  0  0  0  0  0  0  0999 V2000
   -2.9570   -8.4700  -23.7730 C   0  0  0  0  0  2  0  0  0  0  0  0
   -0.7060   -6.0430  -25.7180 C   0  0  0  0  0  0  0  0  0  0  0  0
    0.0560   -5.4770  -24.6950 C   0  0  0  0  0  3  0  0  0  0  0  0
   -0.1970   -5.8240  -23.3740 C   0  0  0  0  0  3  0  0  0  0  0  0
   -1.1850   -6.7610  -23.0790 C   0  0  0  0  0  3  0  0  0  0  0  0
   -1.8880   -7.4320  -24.0930 C   0  0  0  0  0  0  0  0  0  0  0  0
   -1.6240   -7.0610  -25.4200 C   0  0  0  0  0  3  0  0  0  0  0  0
    0.5890   -5.5550  -27.8310 C   0  0  0  0  0  0  0  0  0  0  0  0
    0.6370   -4.8440  -28.8320 O   0  0  0  0  0  0  0  0  0  0  0  0
   -0.5190   -5.5250  -27.0110 N   0  0  0  0  0  0  0  0  0  0  0  0
   -1.3190   -5.0940  -27.4600 H   0  0  0  0  0  0  0  0  0  0  0  0
    3.8300   -8.2130  -26.9730 C   0  0  0  0  0  0  0  0  0  0  0  0
    4.0560   -7.0000  -27.6320 C   0  0  0  0  0  3  0  0  0  0  0  0
    2.9920   -6.1460  -27.9330 C   0  0  0  0  0  3  0  0  0  0  0  0
    1.6940   -6.5110  -27.5750 C   0  0  0  0  0  0  0  0  0  0  0  0
    1.4550   -7.7650  -26.9980 C   0  0  0  0  0  3  0  0  0  0  0  0
    2.5240   -8.6090  -26.6830 C   0  0  0  0  0  3  0  0  0  0  0  0
    4.9740  -10.2760  -27.1630 C   0  0  0  0  0  1  0  0  0  0  0  0
    4.9550   -8.9350  -26.6850 O   0  0  0  0  0  0  0  0  0  0  0  0
   -2.6440   -9.2470  -22.5850 N   0  0  0  0  0  0  0  0  0  0  0  0
   -3.2210   -9.1300  -21.7680 H   0  0  0  0  0  0  0  0  0  0  0  0
   -1.8250  -10.3610  -22.7110 C   0  0  0  0  0  0  0  0  0  0  0  0
   -1.3430  -10.8880  -21.5700 N   0  0  0  0  0  0  0  0  0  0  0  0
   -0.2730  -11.6740  -21.6770 C   0  0  0  0  0  3  0  0  0  0  0  0
    0.4150  -11.8930  -22.7980 N   0  0  0  0  0  0  0  0  0  0  0  0
   -0.1030  -11.4180  -23.9470 C   0  0  0  0  0  0  0  0  0  0  0  0
    0.5640  -11.5630  -25.1670 C   0  0  0  0  0  0  0  0  0  0  0  0
   -0.0020  -11.2170  -26.4020 C   0  0  0  0  0  3  0  0  0  0  0  0
   -1.2500  -10.6280  -26.4110 C   0  0  0  0  0  0  0  0  0  0  0  0
   -1.8860  -10.3320  -25.2150 C   0  0  0  0  0  3  0  0  0  0  0  0
   -1.3120  -10.7120  -23.9720 C   0  0  0  0  0  0  0  0  0  0  0  0
    1.9880  -11.9380  -25.1920 C   0  0  0  0  0  0  0  0  0  0  0  0
    2.5840  -12.0150  -23.9620 N   0  0  0  0  0  0  0  0  0  0  0  0
    2.6110  -12.0390  -26.2380 O   0  0  0  0  0  0  0  0  0  0  0  0
    3.5720  -12.2220  -23.9160 H   0  0  0  0  0  0  0  0  0  0  0  0
    2.0730  -11.8860  -23.0990 H   0  0  0  0  0  0  0  0  0  0  0  0
   -1.8690  -10.2810  -27.5700 O   0  0  0  0  0  0  0  0  0  0  0  0
   -1.3630  -10.6370  -28.3210 H   0  0  0  0  0  0  0  0  0  0  0  0
  1 20  1  0  0  0  0
  2  7  2  0  0  0  0
  2  3  1  0  0  0  0
  3  4  2  0  0  0  0
  4  5  1  0  0  0  0
  6  1  1  0  0  0  0
  6  5  2  0  0  0  0
  7  6  1  0  0  0  0
  8 15  1  0  0  0  0
  8 10  1  0  0  0  0
  9  8  2  0  0  0  0
 10  2  1  0  0  0  0
 11 10  1  0  0  0  0
 12 19  1  0  0  0  0
 12 17  1  0  0  0  0
 13 12  2  0  0  0  0
 14 13  1  0  0  0  0
 14 15  2  0  0  0  0
 15 16  1  0  0  0  0
 16 17  2  0  0  0  0
 18 19  1  0  0  0  0
 20 21  1  0  0  0  0
 22 20  1  0  0  0  0
 22 23  1  0  0  0  0
 24 23  2  0  0  0  0
 25 24  1  0  0  0  0
 26 25  2  0  0  0  0
 27 26  1  0  0  0  0
 28 27  2  0  0  0  0
 29 28  1  0  0  0  0
 29 30  2  0  0  0  0
 30 31  1  0  0  0  0
 31 26  1  0  0  0  0
 31 22  2  0  0  0  0
 32 27  1  0  0  0  0
 32 33  1  0  0  0  0
 33 35  1  0  0  0  0
 33 36  1  0  0  0  0
 34 32  2  0  0  0  0
 37 29  1  0  0  0  0
 38 37  1  0  0  0  0
M  END
>  <minimizedAffinity>
-6.28591824

$$$$
