
 OpenBabel10152418363D

 38 41  0  0  0  0  0  0  0  0999 V2000
    0.9440   -7.1330  -23.7780 C   0  0  0  0  0  2  0  0  0  0  0  0
    2.6440   -8.5090  -26.9340 C   0  0  0  0  0  0  0  0  0  0  0  0
    2.8900   -9.8330  -26.5720 C   0  0  0  0  0  3  0  0  0  0  0  0
    2.5730  -10.2690  -25.2920 C   0  0  0  0  0  3  0  0  0  0  0  0
    1.9780   -9.3920  -24.3870 C   0  0  0  0  0  3  0  0  0  0  0  0
    1.6110   -8.0880  -24.7600 C   0  0  0  0  0  0  0  0  0  0  0  0
    1.9490   -7.6650  -26.0550 C   0  0  0  0  0  3  0  0  0  0  0  0
    2.6940   -7.0970  -29.0280 C   0  0  0  0  0  0  0  0  0  0  0  0
    3.1180   -7.0310  -30.1790 O   0  0  0  0  0  0  0  0  0  0  0  0
    3.1420   -8.0860  -28.1780 N   0  0  0  0  0  0  0  0  0  0  0  0
    3.9910   -8.5260  -28.5140 H   0  0  0  0  0  0  0  0  0  0  0  0
    0.0540   -4.1110  -27.4690 C   0  0  0  0  0  0  0  0  0  0  0  0
   -0.3450   -5.4500  -27.5440 C   0  0  0  0  0  3  0  0  0  0  0  0
    0.5100   -6.4180  -28.0770 C   0  0  0  0  0  3  0  0  0  0  0  0
    1.7710   -6.0420  -28.5410 C   0  0  0  0  0  0  0  0  0  0  0  0
    2.1370   -4.6900  -28.5510 C   0  0  0  0  0  3  0  0  0  0  0  0
    1.2860   -3.7270  -28.0010 C   0  0  0  0  0  3  0  0  0  0  0  0
   -1.0140   -3.4230  -25.4730 C   0  0  0  0  0  1  0  0  0  0  0  0
   -0.8470   -3.2690  -26.8780 O   0  0  0  0  0  0  0  0  0  0  0  0
   -0.4960   -7.0610  -23.9600 N   0  0  0  0  0  0  0  0  0  0  0  0
   -0.8550   -6.7790  -24.8590 H   0  0  0  0  0  0  0  0  0  0  0  0
   -1.3190   -7.7130  -23.0520 C   0  0  0  0  0  0  0  0  0  0  0  0
   -1.7410   -6.9960  -21.9940 N   0  0  0  0  0  0  0  0  0  0  0  0
   -2.1790   -7.6800  -20.9390 C   0  0  0  0  0  3  0  0  0  0  0  0
   -2.1330   -9.0070  -20.8070 N   0  0  0  0  0  0  0  0  0  0  0  0
   -1.7710   -9.7260  -21.8860 C   0  0  0  0  0  0  0  0  0  0  0  0
   -1.6560  -11.1190  -21.8350 C   0  0  0  0  0  0  0  0  0  0  0  0
   -1.4270  -11.9160  -22.9640 C   0  0  0  0  0  3  0  0  0  0  0  0
   -1.2230  -11.2940  -24.1780 C   0  0  0  0  0  0  0  0  0  0  0  0
   -1.1830   -9.9090  -24.2500 C   0  0  0  0  0  3  0  0  0  0  0  0
   -1.4430   -9.1130  -23.1030 C   0  0  0  0  0  0  0  0  0  0  0  0
   -1.6020  -11.8080  -20.5340 C   0  0  0  0  0  0  0  0  0  0  0  0
   -2.8210  -12.0350  -19.9530 N   0  0  0  0  0  0  0  0  0  0  0  0
   -0.5440  -12.0360  -19.9670 O   0  0  0  0  0  0  0  0  0  0  0  0
   -2.8470  -12.4620  -19.0380 H   0  0  0  0  0  0  0  0  0  0  0  0
   -3.6940  -11.8040  -20.4070 H   0  0  0  0  0  0  0  0  0  0  0  0
   -1.0120  -12.0020  -25.3190 O   0  0  0  0  0  0  0  0  0  0  0  0
   -1.1690  -12.9460  -25.1420 H   0  0  0  0  0  0  0  0  0  0  0  0
  2  3  2  0  0  0  0
  2  7  1  0  0  0  0
  3  4  1  0  0  0  0
  4  5  2  0  0  0  0
  6  5  1  0  0  0  0
  6  1  1  0  0  0  0
  7  6  2  0  0  0  0
  8 15  1  0  0  0  0
  8 10  1  0  0  0  0
  9  8  2  0  0  0  0
 10  2  1  0  0  0  0
 11 10  1  0  0  0  0
 12 19  1  0  0  0  0
 13 12  1  0  0  0  0
 14 13  2  0  0  0  0
 15 14  1  0  0  0  0
 16 15  2  0  0  0  0
 16 17  1  0  0  0  0
 17 12  2  0  0  0  0
 19 18  1  0  0  0  0
 20  1  1  0  0  0  0
 20 22  1  0  0  0  0
 21 20  1  0  0  0  0
 22 23  1  0  0  0  0
 23 24  2  0  0  0  0
 24 25  1  0  0  0  0
 26 27  1  0  0  0  0
 26 25  2  0  0  0  0
 27 32  1  0  0  0  0
 28 27  2  0  0  0  0
 29 28  1  0  0  0  0
 30 29  2  0  0  0  0
 30 31  1  0  0  0  0
 31 22  2  0  0  0  0
 31 26  1  0  0  0  0
 32 34  2  0  0  0  0
 32 33  1  0  0  0  0
 33 35  1  0  0  0  0
 36 33  1  0  0  0  0
 37 38  1  0  0  0  0
 37 29  1  0  0  0  0
M  END
>  <minimizedAffinity>
-6.32048845

$$$$
