
 OpenBabel10152418363D

 38 41  0  0  0  0  0  0  0  0999 V2000
    2.4190  -11.6490  -25.3640 C   0  0  0  0  0  2  0  0  0  0  0  0
   -0.9650  -10.4220  -24.0290 C   0  0  0  0  0  0  0  0  0  0  0  0
   -1.7980  -10.6250  -25.1300 C   0  0  0  0  0  3  0  0  0  0  0  0
   -1.2620  -11.0910  -26.3240 C   0  0  0  0  0  3  0  0  0  0  0  0
    0.0970  -11.3890  -26.4050 C   0  0  0  0  0  3  0  0  0  0  0  0
    0.9370  -11.3070  -25.2820 C   0  0  0  0  0  0  0  0  0  0  0  0
    0.3780  -10.8250  -24.0880 C   0  0  0  0  0  3  0  0  0  0  0  0
   -1.5170   -8.4620  -22.5350 C   0  0  0  0  0  0  0  0  0  0  0  0
   -1.8670   -8.1350  -21.4030 O   0  0  0  0  0  0  0  0  0  0  0  0
   -1.5320   -9.7890  -22.9100 N   0  0  0  0  0  0  0  0  0  0  0  0
   -2.0850  -10.3600  -22.2820 H   0  0  0  0  0  0  0  0  0  0  0  0
   -0.6890   -5.3700  -25.3750 C   0  0  0  0  0  0  0  0  0  0  0  0
   -1.2730   -6.5750  -25.7800 C   0  0  0  0  0  3  0  0  0  0  0  0
   -1.5190   -7.5920  -24.8540 C   0  0  0  0  0  3  0  0  0  0  0  0
   -1.1750   -7.4030  -23.5150 C   0  0  0  0  0  0  0  0  0  0  0  0
   -0.5060   -6.2360  -23.1250 C   0  0  0  0  0  3  0  0  0  0  0  0
   -0.2780   -5.2130  -24.0510 C   0  0  0  0  0  3  0  0  0  0  0  0
   -1.0970   -3.1490  -26.0810 C   0  0  0  0  0  1  0  0  0  0  0  0
   -0.5490   -4.4330  -26.3610 O   0  0  0  0  0  0  0  0  0  0  0  0
    3.1200  -10.8610  -26.3650 N   0  0  0  0  0  0  0  0  0  0  0  0
    3.3790  -11.3040  -27.2320 H   0  0  0  0  0  0  0  0  0  0  0  0
    3.0890   -9.4760  -26.2680 C   0  0  0  0  0  0  0  0  0  0  0  0
    2.6430   -8.9600  -25.1080 N   0  0  0  0  0  0  0  0  0  0  0  0
    2.2340   -7.6930  -25.1310 C   0  0  0  0  0  3  0  0  0  0  0  0
    2.1310   -6.9360  -26.2240 N   0  0  0  0  0  0  0  0  0  0  0  0
    2.6350   -7.4290  -27.3710 C   0  0  0  0  0  0  0  0  0  0  0  0
    2.5390   -6.7260  -28.5760 C   0  0  0  0  0  0  0  0  0  0  0  0
    3.1740   -7.1310  -29.7580 C   0  0  0  0  0  3  0  0  0  0  0  0
    3.8630   -8.3270  -29.7580 C   0  0  0  0  0  0  0  0  0  0  0  0
    3.8610   -9.1280  -28.6260 C   0  0  0  0  0  3  0  0  0  0  0  0
    3.2360   -8.6930  -27.4270 C   0  0  0  0  0  0  0  0  0  0  0  0
    1.6070   -5.5930  -28.6990 C   0  0  0  0  0  0  0  0  0  0  0  0
    2.0720   -4.4080  -28.1960 N   0  0  0  0  0  0  0  0  0  0  0  0
    0.4610   -5.7390  -29.0990 O   0  0  0  0  0  0  0  0  0  0  0  0
    1.4600   -3.6040  -28.2090 H   0  0  0  0  0  0  0  0  0  0  0  0
    3.0070   -4.3020  -27.8250 H   0  0  0  0  0  0  0  0  0  0  0  0
    4.5180   -8.7760  -30.8610 O   0  0  0  0  0  0  0  0  0  0  0  0
    4.5230   -8.0750  -31.5360 H   0  0  0  0  0  0  0  0  0  0  0  0
  1  6  1  0  0  0  0
  2 10  1  0  0  0  0
  3  2  2  0  0  0  0
  4  3  1  0  0  0  0
  5  4  2  0  0  0  0
  5  6  1  0  0  0  0
  6  7  2  0  0  0  0
  7  2  1  0  0  0  0
  8  9  2  0  0  0  0
 10  8  1  0  0  0  0
 10 11  1  0  0  0  0
 12 17  1  0  0  0  0
 13 12  2  0  0  0  0
 13 14  1  0  0  0  0
 14 15  2  0  0  0  0
 15 16  1  0  0  0  0
 15  8  1  0  0  0  0
 17 16  2  0  0  0  0
 19 18  1  0  0  0  0
 19 12  1  0  0  0  0
 20 22  1  0  0  0  0
 20  1  1  0  0  0  0
 21 20  1  0  0  0  0
 22 23  1  0  0  0  0
 24 23  2  0  0  0  0
 25 24  1  0  0  0  0
 26 25  2  0  0  0  0
 27 26  1  0  0  0  0
 28 29  1  0  0  0  0
 28 27  2  0  0  0  0
 29 30  2  0  0  0  0
 30 31  1  0  0  0  0
 31 26  1  0  0  0  0
 31 22  2  0  0  0  0
 32 27  1  0  0  0  0
 32 33  1  0  0  0  0
 33 36  1  0  0  0  0
 34 32  2  0  0  0  0
 35 33  1  0  0  0  0
 37 29  1  0  0  0  0
 38 37  1  0  0  0  0
M  END
>  <minimizedAffinity>
-8.73445606

$$$$

 OpenBabel10152418363D

 38 41  0  0  0  0  0  0  0  0999 V2000
    2.8480  -11.3670  -25.2640 C   0  0  0  0  0  2  0  0  0  0  0  0
   -0.7030  -11.8420  -23.8850 C   0  0  0  0  0  0  0  0  0  0  0  0
   -1.4830  -11.6270  -25.0230 C   0  0  0  0  0  3  0  0  0  0  0  0
   -0.8750  -11.2640  -26.2180 C   0  0  0  0  0  3  0  0  0  0  0  0
    0.5130  -11.1500  -26.2840 C   0  0  0  0  0  3  0  0  0  0  0  0
    1.3300  -11.4730  -25.1880 C   0  0  0  0  0  0  0  0  0  0  0  0
    0.6960  -11.8290  -23.9880 C   0  0  0  0  0  3  0  0  0  0  0  0
   -1.7200  -11.1360  -21.6840 C   0  0  0  0  0  0  0  0  0  0  0  0
   -2.1110  -11.5340  -20.5890 O   0  0  0  0  0  0  0  0  0  0  0  0
   -1.3870  -12.0360  -22.6730 N   0  0  0  0  0  0  0  0  0  0  0  0
   -1.7460  -12.9650  -22.4840 H   0  0  0  0  0  0  0  0  0  0  0  0
   -1.5260   -6.9220  -22.4040 C   0  0  0  0  0  0  0  0  0  0  0  0
   -1.6400   -7.4200  -21.1020 C   0  0  0  0  0  3  0  0  0  0  0  0
   -1.7280   -8.7950  -20.8720 C   0  0  0  0  0  3  0  0  0  0  0  0
   -1.7060   -9.6770  -21.9530 C   0  0  0  0  0  0  0  0  0  0  0  0
   -1.6860   -9.1770  -23.2620 C   0  0  0  0  0  3  0  0  0  0  0  0
   -1.5800   -7.8000  -23.4860 C   0  0  0  0  0  3  0  0  0  0  0  0
   -0.3170   -5.0990  -23.3050 C   0  0  0  0  0  1  0  0  0  0  0  0
   -1.3920   -5.5640  -22.4960 O   0  0  0  0  0  0  0  0  0  0  0  0
    3.2930  -10.4170  -26.2690 N   0  0  0  0  0  0  0  0  0  0  0  0
    3.5530  -10.7640  -27.1790 H   0  0  0  0  0  0  0  0  0  0  0  0
    3.0060   -9.0700  -26.0900 C   0  0  0  0  0  0  0  0  0  0  0  0
    2.4350   -8.7230  -24.9220 N   0  0  0  0  0  0  0  0  0  0  0  0
    1.8020   -7.5520  -24.8870 C   0  0  0  0  0  3  0  0  0  0  0  0
    1.6010   -6.7520  -25.9350 N   0  0  0  0  0  0  0  0  0  0  0  0
    2.2250   -7.0670  -27.0850 C   0  0  0  0  0  0  0  0  0  0  0  0
    2.0440   -6.3120  -28.2480 C   0  0  0  0  0  0  0  0  0  0  0  0
    2.7830   -6.5140  -29.4220 C   0  0  0  0  0  3  0  0  0  0  0  0
    3.6780   -7.5630  -29.4630 C   0  0  0  0  0  0  0  0  0  0  0  0
    3.7830   -8.4280  -28.3830 C   0  0  0  0  0  3  0  0  0  0  0  0
    3.0480   -8.1950  -27.1900 C   0  0  0  0  0  0  0  0  0  0  0  0
    0.9260   -5.3580  -28.3450 C   0  0  0  0  0  0  0  0  0  0  0  0
   -0.2870   -5.8540  -27.9510 N   0  0  0  0  0  0  0  0  0  0  0  0
    1.0570   -4.2590  -28.8620 O   0  0  0  0  0  0  0  0  0  0  0  0
   -1.1020   -5.2620  -28.0380 H   0  0  0  0  0  0  0  0  0  0  0  0
   -0.4000   -6.7820  -27.5650 H   0  0  0  0  0  0  0  0  0  0  0  0
    4.4410   -7.8110  -30.5600 O   0  0  0  0  0  0  0  0  0  0  0  0
    4.3410   -7.0760  -31.1900 H   0  0  0  0  0  0  0  0  0  0  0  0
  1  6  1  0  0  0  0
  2 10  1  0  0  0  0
  3  2  2  0  0  0  0
  4  3  1  0  0  0  0
  5  4  2  0  0  0  0
  5  6  1  0  0  0  0
  6  7  2  0  0  0  0
  7  2  1  0  0  0  0
  8  9  2  0  0  0  0
 10 11  1  0  0  0  0
 10  8  1  0  0  0  0
 12 13  1  0  0  0  0
 13 14  2  0  0  0  0
 15  8  1  0  0  0  0
 15 14  1  0  0  0  0
 16 15  2  0  0  0  0
 17 16  1  0  0  0  0
 17 12  2  0  0  0  0
 18 19  1  0  0  0  0
 19 12  1  0  0  0  0
 20 22  1  0  0  0  0
 20  1  1  0  0  0  0
 21 20  1  0  0  0  0
 22 23  1  0  0  0  0
 23 24  2  0  0  0  0
 25 24  1  0  0  0  0
 26 25  2  0  0  0  0
 27 26  1  0  0  0  0
 28 27  2  0  0  0  0
 29 28  1  0  0  0  0
 29 30  2  0  0  0  0
 30 31  1  0  0  0  0
 31 26  1  0  0  0  0
 31 22  2  0  0  0  0
 32 27  1  0  0  0  0
 32 33  1  0  0  0  0
 33 36  1  0  0  0  0
 34 32  2  0  0  0  0
 35 33  1  0  0  0  0
 37 29  1  0  0  0  0
 38 37  1  0  0  0  0
M  END
>  <minimizedAffinity>
-8.45317745

$$$$

 OpenBabel10152418363D

 38 41  0  0  0  0  0  0  0  0999 V2000
    0.0010  -11.9020  -26.1930 C   0  0  0  0  0  2  0  0  0  0  0  0
    3.6550  -11.5720  -27.3230 C   0  0  0  0  0  0  0  0  0  0  0  0
    4.3460  -11.8250  -26.1370 C   0  0  0  0  0  3  0  0  0  0  0  0
    3.6400  -12.0360  -24.9590 C   0  0  0  0  0  3  0  0  0  0  0  0
    2.2460  -12.0280  -24.9740 C   0  0  0  0  0  3  0  0  0  0  0  0
    1.5240  -11.8930  -26.1710 C   0  0  0  0  0  0  0  0  0  0  0  0
    2.2560  -11.6720  -27.3480 C   0  0  0  0  0  3  0  0  0  0  0  0
    4.3870  -10.0490  -29.2010 C   0  0  0  0  0  0  0  0  0  0  0  0
    4.9740  -10.0020  -30.2790 O   0  0  0  0  0  0  0  0  0  0  0  0
    4.4230  -11.1980  -28.4380 N   0  0  0  0  0  0  0  0  0  0  0  0
    5.1600  -11.8290  -28.7290 H   0  0  0  0  0  0  0  0  0  0  0  0
    2.3330   -6.5660  -27.7990 C   0  0  0  0  0  0  0  0  0  0  0  0
    2.6650   -6.7050  -29.1510 C   0  0  0  0  0  3  0  0  0  0  0  0
    3.3580   -7.8320  -29.6010 C   0  0  0  0  0  3  0  0  0  0  0  0
    3.7230   -8.8240  -28.6900 C   0  0  0  0  0  0  0  0  0  0  0  0
    3.4740   -8.6440  -27.3240 C   0  0  0  0  0  3  0  0  0  0  0  0
    2.7650   -7.5230  -26.8800 C   0  0  0  0  0  3  0  0  0  0  0  0
    1.1160   -4.7010  -28.5980 C   0  0  0  0  0  1  0  0  0  0  0  0
    1.6080   -5.4480  -27.4910 O   0  0  0  0  0  0  0  0  0  0  0  0
   -0.5780  -11.2720  -25.0180 N   0  0  0  0  0  0  0  0  0  0  0  0
   -0.4000  -11.6820  -24.1140 H   0  0  0  0  0  0  0  0  0  0  0  0
   -1.0340   -9.9640  -25.1160 C   0  0  0  0  0  0  0  0  0  0  0  0
   -0.8730   -9.3550  -26.3050 N   0  0  0  0  0  0  0  0  0  0  0  0
   -0.9260   -8.0240  -26.3100 C   0  0  0  0  0  3  0  0  0  0  0  0
   -1.0190   -7.2510  -25.2270 N   0  0  0  0  0  0  0  0  0  0  0  0
   -1.2440   -7.8600  -24.0480 C   0  0  0  0  0  0  0  0  0  0  0  0
   -1.3170   -7.1380  -22.8520 C   0  0  0  0  0  0  0  0  0  0  0  0
   -1.6920   -7.7090  -21.6280 C   0  0  0  0  0  3  0  0  0  0  0  0
   -1.9240   -9.0680  -21.5800 C   0  0  0  0  0  0  0  0  0  0  0  0
   -1.7210   -9.8470  -22.7090 C   0  0  0  0  0  3  0  0  0  0  0  0
   -1.3660   -9.2520  -23.9490 C   0  0  0  0  0  0  0  0  0  0  0  0
   -0.8280   -5.7500  -22.7950 C   0  0  0  0  0  0  0  0  0  0  0  0
    0.4690   -5.5810  -23.1970 N   0  0  0  0  0  0  0  0  0  0  0  0
   -1.4920   -4.8510  -22.3000 O   0  0  0  0  0  0  0  0  0  0  0  0
    0.8770   -4.6580  -23.1360 H   0  0  0  0  0  0  0  0  0  0  0  0
    1.0310   -6.3370  -23.5650 H   0  0  0  0  0  0  0  0  0  0  0  0
   -2.3090   -9.6880  -20.4330 O   0  0  0  0  0  0  0  0  0  0  0  0
   -2.5110   -9.0160  -19.7590 H   0  0  0  0  0  0  0  0  0  0  0  0
  1  6  1  0  0  0  0
  1 20  1  0  0  0  0
  2  3  1  0  0  0  0
  3  4  2  0  0  0  0
  5  4  1  0  0  0  0
  6  5  2  0  0  0  0
  7  2  2  0  0  0  0
  7  6  1  0  0  0  0
  8 15  1  0  0  0  0
  8 10  1  0  0  0  0
  9  8  2  0  0  0  0
 10  2  1  0  0  0  0
 11 10  1  0  0  0  0
 12 19  1  0  0  0  0
 12 17  1  0  0  0  0
 13 12  2  0  0  0  0
 14 13  1  0  0  0  0
 14 15  2  0  0  0  0
 15 16  1  0  0  0  0
 16 17  2  0  0  0  0
 18 19  1  0  0  0  0
 20 21  1  0  0  0  0
 22 20  1  0  0  0  0
 22 31  1  0  0  0  0
 23 22  2  0  0  0  0
 24 23  1  0  0  0  0
 24 25  2  0  0  0  0
 25 26  1  0  0  0  0
 26 31  2  0  0  0  0
 26 27  1  0  0  0  0
 27 32  1  0  0  0  0
 27 28  2  0  0  0  0
 28 29  1  0  0  0  0
 29 37  1  0  0  0  0
 30 29  2  0  0  0  0
 31 30  1  0  0  0  0
 32 34  2  0  0  0  0
 33 35  1  0  0  0  0
 33 32  1  0  0  0  0
 36 33  1  0  0  0  0
 37 38  1  0  0  0  0
M  END
>  <minimizedAffinity>
-8.22196865

$$$$

 OpenBabel10152418363D

 38 41  0  0  0  0  0  0  0  0999 V2000
    0.6610  -12.0390  -26.7620 C   0  0  0  0  0  2  0  0  0  0  0  0
    4.1220  -11.1950  -28.1930 C   0  0  0  0  0  0  0  0  0  0  0  0
    4.9480  -11.4100  -27.0890 C   0  0  0  0  0  3  0  0  0  0  0  0
    4.3890  -11.7610  -25.8670 C   0  0  0  0  0  3  0  0  0  0  0  0
    3.0110  -11.9310  -25.7570 C   0  0  0  0  0  3  0  0  0  0  0  0
    2.1670  -11.8360  -26.8760 C   0  0  0  0  0  0  0  0  0  0  0  0
    2.7500  -11.4720  -28.1000 C   0  0  0  0  0  3  0  0  0  0  0  0
    4.5180   -9.4840  -30.0090 C   0  0  0  0  0  0  0  0  0  0  0  0
    4.9740   -9.3100  -31.1360 O   0  0  0  0  0  0  0  0  0  0  0  0
    4.7280  -10.6770  -29.3500 N   0  0  0  0  0  0  0  0  0  0  0  0
    5.4750  -11.2200  -29.7680 H   0  0  0  0  0  0  0  0  0  0  0  0
    2.3740   -6.3260  -28.0750 C   0  0  0  0  0  0  0  0  0  0  0  0
    2.2430   -6.5410  -29.4500 C   0  0  0  0  0  3  0  0  0  0  0  0
    2.9630   -7.5570  -30.0830 C   0  0  0  0  0  3  0  0  0  0  0  0
    3.8230   -8.3600  -29.3340 C   0  0  0  0  0  0  0  0  0  0  0  0
    4.0260   -8.0880  -27.9750 C   0  0  0  0  0  3  0  0  0  0  0  0
    3.2890   -7.0810  -27.3420 C   0  0  0  0  0  3  0  0  0  0  0  0
    1.3490   -4.2200  -28.4110 C   0  0  0  0  0  1  0  0  0  0  0  0
    1.5760   -5.3400  -27.5620 O   0  0  0  0  0  0  0  0  0  0  0  0
   -0.0300  -10.8460  -26.3000 N   0  0  0  0  0  0  0  0  0  0  0  0
   -0.5900  -10.3280  -26.9580 H   0  0  0  0  0  0  0  0  0  0  0  0
   -0.2040  -10.6600  -24.9350 C   0  0  0  0  0  0  0  0  0  0  0  0
   -0.5300  -11.7480  -24.2130 N   0  0  0  0  0  0  0  0  0  0  0  0
   -1.0790  -11.5350  -23.0190 C   0  0  0  0  0  3  0  0  0  0  0  0
   -1.4270  -10.3430  -22.5310 N   0  0  0  0  0  0  0  0  0  0  0  0
   -1.0450   -9.2540  -23.2240 C   0  0  0  0  0  0  0  0  0  0  0  0
   -1.3960   -7.9640  -22.8140 C   0  0  0  0  0  0  0  0  0  0  0  0
   -0.9000   -6.8010  -23.4180 C   0  0  0  0  0  3  0  0  0  0  0  0
   -0.0870   -6.9300  -24.5250 C   0  0  0  0  0  0  0  0  0  0  0  0
    0.1690   -8.1860  -25.0550 C   0  0  0  0  0  3  0  0  0  0  0  0
   -0.3180   -9.3580  -24.4170 C   0  0  0  0  0  0  0  0  0  0  0  0
   -2.4590   -7.7690  -21.8130 C   0  0  0  0  0  0  0  0  0  0  0  0
   -3.7320   -7.7820  -22.3170 N   0  0  0  0  0  0  0  0  0  0  0  0
   -2.2080   -7.4870  -20.6510 O   0  0  0  0  0  0  0  0  0  0  0  0
   -4.5020   -7.6070  -21.6860 H   0  0  0  0  0  0  0  0  0  0  0  0
   -3.9330   -7.9720  -23.2890 H   0  0  0  0  0  0  0  0  0  0  0  0
    0.4460   -5.8480  -25.1530 O   0  0  0  0  0  0  0  0  0  0  0  0
    0.2720   -5.0530  -24.6210 H   0  0  0  0  0  0  0  0  0  0  0  0
  1 20  1  0  0  0  0
  2  7  2  0  0  0  0
  2  3  1  0  0  0  0
  3  4  2  0  0  0  0
  4  5  1  0  0  0  0
  6  1  1  0  0  0  0
  6  5  2  0  0  0  0
  7  6  1  0  0  0  0
  8 10  1  0  0  0  0
  8 15  1  0  0  0  0
  9  8  2  0  0  0  0
 10  2  1  0  0  0  0
 11 10  1  0  0  0  0
 12 19  1  0  0  0  0
 12 17  1  0  0  0  0
 13 12  2  0  0  0  0
 14 13  1  0  0  0  0
 14 15  2  0  0  0  0
 15 16  1  0  0  0  0
 16 17  2  0  0  0  0
 18 19  1  0  0  0  0
 20 22  1  0  0  0  0
 21 20  1  0  0  0  0
 22 31  2  0  0  0  0
 22 23  1  0  0  0  0
 23 24  2  0  0  0  0
 24 25  1  0  0  0  0
 26 27  1  0  0  0  0
 26 25  2  0  0  0  0
 27 32  1  0  0  0  0
 28 27  2  0  0  0  0
 29 28  1  0  0  0  0
 30 29  2  0  0  0  0
 30 31  1  0  0  0  0
 31 26  1  0  0  0  0
 32 34  2  0  0  0  0
 33 32  1  0  0  0  0
 33 35  1  0  0  0  0
 36 33  1  0  0  0  0
 37 38  1  0  0  0  0
 37 29  1  0  0  0  0
M  END
>  <minimizedAffinity>
-8.15827847

$$$$

 OpenBabel10152418363D

 38 41  0  0  0  0  0  0  0  0999 V2000
   -1.4720   -8.8710  -24.4500 C   0  0  0  0  0  2  0  0  0  0  0  0
    1.3890  -11.2410  -25.4160 C   0  0  0  0  0  0  0  0  0  0  0  0
    0.7880  -12.0310  -26.3970 C   0  0  0  0  0  3  0  0  0  0  0  0
   -0.5540  -11.8480  -26.7030 C   0  0  0  0  0  3  0  0  0  0  0  0
   -1.2850  -10.8550  -26.0540 C   0  0  0  0  0  3  0  0  0  0  0  0
   -0.6790   -9.9690  -25.1470 C   0  0  0  0  0  0  0  0  0  0  0  0
    0.6760  -10.1760  -24.8460 C   0  0  0  0  0  3  0  0  0  0  0  0
    3.8880  -11.4640  -25.7150 C   0  0  0  0  0  0  0  0  0  0  0  0
    4.8960  -12.0390  -25.3110 O   0  0  0  0  0  0  0  0  0  0  0  0
    2.6960  -11.5890  -25.0320 N   0  0  0  0  0  0  0  0  0  0  0  0
    2.8260  -11.9490  -24.0940 H   0  0  0  0  0  0  0  0  0  0  0  0
    4.3590   -8.8290  -29.0530 C   0  0  0  0  0  0  0  0  0  0  0  0
    4.2670   -8.3250  -27.7510 C   0  0  0  0  0  3  0  0  0  0  0  0
    4.0880   -9.1860  -26.6660 C   0  0  0  0  0  3  0  0  0  0  0  0
    3.9970  -10.5610  -26.8870 C   0  0  0  0  0  0  0  0  0  0  0  0
    3.9960  -11.0600  -28.1950 C   0  0  0  0  0  3  0  0  0  0  0  0
    4.1930  -10.1950  -29.2770 C   0  0  0  0  0  3  0  0  0  0  0  0
    3.9470   -8.1210  -31.2730 C   0  0  0  0  0  1  0  0  0  0  0  0
    4.5890   -7.8920  -30.0230 O   0  0  0  0  0  0  0  0  0  0  0  0
   -0.7160   -8.2230  -23.3910 N   0  0  0  0  0  0  0  0  0  0  0  0
   -0.1710   -8.7980  -22.7680 H   0  0  0  0  0  0  0  0  0  0  0  0
   -0.4700   -6.8600  -23.4810 C   0  0  0  0  0  0  0  0  0  0  0  0
   -0.8700   -6.1020  -22.4430 N   0  0  0  0  0  0  0  0  0  0  0  0
   -1.0100   -4.7980  -22.6690 C   0  0  0  0  0  3  0  0  0  0  0  0
   -0.8900   -4.2030  -23.8570 N   0  0  0  0  0  0  0  0  0  0  0  0
   -0.4290   -4.9480  -24.8800 C   0  0  0  0  0  0  0  0  0  0  0  0
   -0.3070   -4.4250  -26.1710 C   0  0  0  0  0  0  0  0  0  0  0  0
    0.3020   -5.1140  -27.2280 C   0  0  0  0  0  3  0  0  0  0  0  0
    0.7320   -6.4070  -27.0090 C   0  0  0  0  0  0  0  0  0  0  0  0
    0.4980   -7.0180  -25.7860 C   0  0  0  0  0  3  0  0  0  0  0  0
   -0.0960   -6.2990  -24.7150 C   0  0  0  0  0  0  0  0  0  0  0  0
   -0.9790   -3.1630  -26.5250 C   0  0  0  0  0  0  0  0  0  0  0  0
   -0.1980   -2.2650  -27.2010 N   0  0  0  0  0  0  0  0  0  0  0  0
   -2.1020   -2.8960  -26.1250 O   0  0  0  0  0  0  0  0  0  0  0  0
   -0.5880   -1.3620  -27.4300 H   0  0  0  0  0  0  0  0  0  0  0  0
    0.7480   -2.4740  -27.4910 H   0  0  0  0  0  0  0  0  0  0  0  0
    1.3460   -7.1320  -27.9810 O   0  0  0  0  0  0  0  0  0  0  0  0
    1.5350   -6.5520  -28.7400 H   0  0  0  0  0  0  0  0  0  0  0  0
  1 20  1  0  0  0  0
  2 10  1  0  0  0  0
  2  7  1  0  0  0  0
  3  2  2  0  0  0  0
  4  3  1  0  0  0  0
  4  5  2  0  0  0  0
  5  6  1  0  0  0  0
  6  7  2  0  0  0  0
  6  1  1  0  0  0  0
  8  9  2  0  0  0  0
  8 10  1  0  0  0  0
 10 11  1  0  0  0  0
 12 13  1  0  0  0  0
 13 14  2  0  0  0  0
 15 14  1  0  0  0  0
 15  8  1  0  0  0  0
 16 15  2  0  0  0  0
 17 12  2  0  0  0  0
 17 16  1  0  0  0  0
 18 19  1  0  0  0  0
 19 12  1  0  0  0  0
 20 21  1  0  0  0  0
 22 20  1  0  0  0  0
 22 23  1  0  0  0  0
 24 23  2  0  0  0  0
 25 24  1  0  0  0  0
 26 31  1  0  0  0  0
 26 25  2  0  0  0  0
 27 26  1  0  0  0  0
 28 29  1  0  0  0  0
 28 27  2  0  0  0  0
 29 30  2  0  0  0  0
 30 31  1  0  0  0  0
 31 22  2  0  0  0  0
 32 27  1  0  0  0  0
 32 34  2  0  0  0  0
 33 32  1  0  0  0  0
 35 33  1  0  0  0  0
 36 33  1  0  0  0  0
 37 29  1  0  0  0  0
 38 37  1  0  0  0  0
M  END
>  <minimizedAffinity>
-6.57535219

$$$$

 OpenBabel10152418363D

 38 41  0  0  0  0  0  0  0  0999 V2000
    0.9440   -7.1330  -23.7780 C   0  0  0  0  0  2  0  0  0  0  0  0
    2.6440   -8.5090  -26.9340 C   0  0  0  0  0  0  0  0  0  0  0  0
    2.8900   -9.8330  -26.5720 C   0  0  0  0  0  3  0  0  0  0  0  0
    2.5730  -10.2690  -25.2920 C   0  0  0  0  0  3  0  0  0  0  0  0
    1.9780   -9.3920  -24.3870 C   0  0  0  0  0  3  0  0  0  0  0  0
    1.6110   -8.0880  -24.7600 C   0  0  0  0  0  0  0  0  0  0  0  0
    1.9490   -7.6650  -26.0550 C   0  0  0  0  0  3  0  0  0  0  0  0
    2.6940   -7.0970  -29.0280 C   0  0  0  0  0  0  0  0  0  0  0  0
    3.1180   -7.0310  -30.1790 O   0  0  0  0  0  0  0  0  0  0  0  0
    3.1420   -8.0860  -28.1780 N   0  0  0  0  0  0  0  0  0  0  0  0
    3.9910   -8.5260  -28.5140 H   0  0  0  0  0  0  0  0  0  0  0  0
    0.0540   -4.1110  -27.4690 C   0  0  0  0  0  0  0  0  0  0  0  0
   -0.3450   -5.4500  -27.5440 C   0  0  0  0  0  3  0  0  0  0  0  0
    0.5100   -6.4180  -28.0770 C   0  0  0  0  0  3  0  0  0  0  0  0
    1.7710   -6.0420  -28.5410 C   0  0  0  0  0  0  0  0  0  0  0  0
    2.1370   -4.6900  -28.5510 C   0  0  0  0  0  3  0  0  0  0  0  0
    1.2860   -3.7270  -28.0010 C   0  0  0  0  0  3  0  0  0  0  0  0
   -1.0140   -3.4230  -25.4730 C   0  0  0  0  0  1  0  0  0  0  0  0
   -0.8470   -3.2690  -26.8780 O   0  0  0  0  0  0  0  0  0  0  0  0
   -0.4960   -7.0610  -23.9600 N   0  0  0  0  0  0  0  0  0  0  0  0
   -0.8550   -6.7790  -24.8590 H   0  0  0  0  0  0  0  0  0  0  0  0
   -1.3190   -7.7130  -23.0520 C   0  0  0  0  0  0  0  0  0  0  0  0
   -1.7410   -6.9960  -21.9940 N   0  0  0  0  0  0  0  0  0  0  0  0
   -2.1790   -7.6800  -20.9390 C   0  0  0  0  0  3  0  0  0  0  0  0
   -2.1330   -9.0070  -20.8070 N   0  0  0  0  0  0  0  0  0  0  0  0
   -1.7710   -9.7260  -21.8860 C   0  0  0  0  0  0  0  0  0  0  0  0
   -1.6560  -11.1190  -21.8350 C   0  0  0  0  0  0  0  0  0  0  0  0
   -1.4270  -11.9160  -22.9640 C   0  0  0  0  0  3  0  0  0  0  0  0
   -1.2230  -11.2940  -24.1780 C   0  0  0  0  0  0  0  0  0  0  0  0
   -1.1830   -9.9090  -24.2500 C   0  0  0  0  0  3  0  0  0  0  0  0
   -1.4430   -9.1130  -23.1030 C   0  0  0  0  0  0  0  0  0  0  0  0
   -1.6020  -11.8080  -20.5340 C   0  0  0  0  0  0  0  0  0  0  0  0
   -2.8210  -12.0350  -19.9530 N   0  0  0  0  0  0  0  0  0  0  0  0
   -0.5440  -12.0360  -19.9670 O   0  0  0  0  0  0  0  0  0  0  0  0
   -2.8470  -12.4620  -19.0380 H   0  0  0  0  0  0  0  0  0  0  0  0
   -3.6940  -11.8040  -20.4070 H   0  0  0  0  0  0  0  0  0  0  0  0
   -1.0120  -12.0020  -25.3190 O   0  0  0  0  0  0  0  0  0  0  0  0
   -1.1690  -12.9460  -25.1420 H   0  0  0  0  0  0  0  0  0  0  0  0
  2  3  2  0  0  0  0
  2  7  1  0  0  0  0
  3  4  1  0  0  0  0
  4  5  2  0  0  0  0
  6  5  1  0  0  0  0
  6  1  1  0  0  0  0
  7  6  2  0  0  0  0
  8 15  1  0  0  0  0
  8 10  1  0  0  0  0
  9  8  2  0  0  0  0
 10  2  1  0  0  0  0
 11 10  1  0  0  0  0
 12 19  1  0  0  0  0
 13 12  1  0  0  0  0
 14 13  2  0  0  0  0
 15 14  1  0  0  0  0
 16 15  2  0  0  0  0
 16 17  1  0  0  0  0
 17 12  2  0  0  0  0
 19 18  1  0  0  0  0
 20  1  1  0  0  0  0
 20 22  1  0  0  0  0
 21 20  1  0  0  0  0
 22 23  1  0  0  0  0
 23 24  2  0  0  0  0
 24 25  1  0  0  0  0
 26 27  1  0  0  0  0
 26 25  2  0  0  0  0
 27 32  1  0  0  0  0
 28 27  2  0  0  0  0
 29 28  1  0  0  0  0
 30 29  2  0  0  0  0
 30 31  1  0  0  0  0
 31 22  2  0  0  0  0
 31 26  1  0  0  0  0
 32 34  2  0  0  0  0
 32 33  1  0  0  0  0
 33 35  1  0  0  0  0
 36 33  1  0  0  0  0
 37 38  1  0  0  0  0
 37 29  1  0  0  0  0
M  END
>  <minimizedAffinity>
-6.32048845

$$$$

 OpenBabel10152418363D

 38 41  0  0  0  0  0  0  0  0999 V2000
   -2.9570   -8.4700  -23.7730 C   0  0  0  0  0  2  0  0  0  0  0  0
   -0.7060   -6.0430  -25.7180 C   0  0  0  0  0  0  0  0  0  0  0  0
    0.0560   -5.4770  -24.6950 C   0  0  0  0  0  3  0  0  0  0  0  0
   -0.1970   -5.8240  -23.3740 C   0  0  0  0  0  3  0  0  0  0  0  0
   -1.1850   -6.7610  -23.0790 C   0  0  0  0  0  3  0  0  0  0  0  0
   -1.8880   -7.4320  -24.0930 C   0  0  0  0  0  0  0  0  0  0  0  0
   -1.6240   -7.0610  -25.4200 C   0  0  0  0  0  3  0  0  0  0  0  0
    0.5890   -5.5550  -27.8310 C   0  0  0  0  0  0  0  0  0  0  0  0
    0.6370   -4.8440  -28.8320 O   0  0  0  0  0  0  0  0  0  0  0  0
   -0.5190   -5.5250  -27.0110 N   0  0  0  0  0  0  0  0  0  0  0  0
   -1.3190   -5.0940  -27.4600 H   0  0  0  0  0  0  0  0  0  0  0  0
    3.8300   -8.2130  -26.9730 C   0  0  0  0  0  0  0  0  0  0  0  0
    4.0560   -7.0000  -27.6320 C   0  0  0  0  0  3  0  0  0  0  0  0
    2.9920   -6.1460  -27.9330 C   0  0  0  0  0  3  0  0  0  0  0  0
    1.6940   -6.5110  -27.5750 C   0  0  0  0  0  0  0  0  0  0  0  0
    1.4550   -7.7650  -26.9980 C   0  0  0  0  0  3  0  0  0  0  0  0
    2.5240   -8.6090  -26.6830 C   0  0  0  0  0  3  0  0  0  0  0  0
    4.9740  -10.2760  -27.1630 C   0  0  0  0  0  1  0  0  0  0  0  0
    4.9550   -8.9350  -26.6850 O   0  0  0  0  0  0  0  0  0  0  0  0
   -2.6440   -9.2470  -22.5850 N   0  0  0  0  0  0  0  0  0  0  0  0
   -3.2210   -9.1300  -21.7680 H   0  0  0  0  0  0  0  0  0  0  0  0
   -1.8250  -10.3610  -22.7110 C   0  0  0  0  0  0  0  0  0  0  0  0
   -1.3430  -10.8880  -21.5700 N   0  0  0  0  0  0  0  0  0  0  0  0
   -0.2730  -11.6740  -21.6770 C   0  0  0  0  0  3  0  0  0  0  0  0
    0.4150  -11.8930  -22.7980 N   0  0  0  0  0  0  0  0  0  0  0  0
   -0.1030  -11.4180  -23.9470 C   0  0  0  0  0  0  0  0  0  0  0  0
    0.5640  -11.5630  -25.1670 C   0  0  0  0  0  0  0  0  0  0  0  0
   -0.0020  -11.2170  -26.4020 C   0  0  0  0  0  3  0  0  0  0  0  0
   -1.2500  -10.6280  -26.4110 C   0  0  0  0  0  0  0  0  0  0  0  0
   -1.8860  -10.3320  -25.2150 C   0  0  0  0  0  3  0  0  0  0  0  0
   -1.3120  -10.7120  -23.9720 C   0  0  0  0  0  0  0  0  0  0  0  0
    1.9880  -11.9380  -25.1920 C   0  0  0  0  0  0  0  0  0  0  0  0
    2.5840  -12.0150  -23.9620 N   0  0  0  0  0  0  0  0  0  0  0  0
    2.6110  -12.0390  -26.2380 O   0  0  0  0  0  0  0  0  0  0  0  0
    3.5720  -12.2220  -23.9160 H   0  0  0  0  0  0  0  0  0  0  0  0
    2.0730  -11.8860  -23.0990 H   0  0  0  0  0  0  0  0  0  0  0  0
   -1.8690  -10.2810  -27.5700 O   0  0  0  0  0  0  0  0  0  0  0  0
   -1.3630  -10.6370  -28.3210 H   0  0  0  0  0  0  0  0  0  0  0  0
  1 20  1  0  0  0  0
  2  7  2  0  0  0  0
  2  3  1  0  0  0  0
  3  4  2  0  0  0  0
  4  5  1  0  0  0  0
  6  1  1  0  0  0  0
  6  5  2  0  0  0  0
  7  6  1  0  0  0  0
  8 15  1  0  0  0  0
  8 10  1  0  0  0  0
  9  8  2  0  0  0  0
 10  2  1  0  0  0  0
 11 10  1  0  0  0  0
 12 19  1  0  0  0  0
 12 17  1  0  0  0  0
 13 12  2  0  0  0  0
 14 13  1  0  0  0  0
 14 15  2  0  0  0  0
 15 16  1  0  0  0  0
 16 17  2  0  0  0  0
 18 19  1  0  0  0  0
 20 21  1  0  0  0  0
 22 20  1  0  0  0  0
 22 23  1  0  0  0  0
 24 23  2  0  0  0  0
 25 24  1  0  0  0  0
 26 25  2  0  0  0  0
 27 26  1  0  0  0  0
 28 27  2  0  0  0  0
 29 28  1  0  0  0  0
 29 30  2  0  0  0  0
 30 31  1  0  0  0  0
 31 26  1  0  0  0  0
 31 22  2  0  0  0  0
 32 27  1  0  0  0  0
 32 33  1  0  0  0  0
 33 35  1  0  0  0  0
 33 36  1  0  0  0  0
 34 32  2  0  0  0  0
 37 29  1  0  0  0  0
 38 37  1  0  0  0  0
M  END
>  <minimizedAffinity>
-6.28591824

$$$$
