
 OpenBabel10152418363D

 38 41  0  0  0  0  0  0  0  0999 V2000
    2.4190  -11.6490  -25.3640 C   0  0  0  0  0  2  0  0  0  0  0  0
   -0.9650  -10.4220  -24.0290 C   0  0  0  0  0  0  0  0  0  0  0  0
   -1.7980  -10.6250  -25.1300 C   0  0  0  0  0  3  0  0  0  0  0  0
   -1.2620  -11.0910  -26.3240 C   0  0  0  0  0  3  0  0  0  0  0  0
    0.0970  -11.3890  -26.4050 C   0  0  0  0  0  3  0  0  0  0  0  0
    0.9370  -11.3070  -25.2820 C   0  0  0  0  0  0  0  0  0  0  0  0
    0.3780  -10.8250  -24.0880 C   0  0  0  0  0  3  0  0  0  0  0  0
   -1.5170   -8.4620  -22.5350 C   0  0  0  0  0  0  0  0  0  0  0  0
   -1.8670   -8.1350  -21.4030 O   0  0  0  0  0  0  0  0  0  0  0  0
   -1.5320   -9.7890  -22.9100 N   0  0  0  0  0  0  0  0  0  0  0  0
   -2.0850  -10.3600  -22.2820 H   0  0  0  0  0  0  0  0  0  0  0  0
   -0.6890   -5.3700  -25.3750 C   0  0  0  0  0  0  0  0  0  0  0  0
   -1.2730   -6.5750  -25.7800 C   0  0  0  0  0  3  0  0  0  0  0  0
   -1.5190   -7.5920  -24.8540 C   0  0  0  0  0  3  0  0  0  0  0  0
   -1.1750   -7.4030  -23.5150 C   0  0  0  0  0  0  0  0  0  0  0  0
   -0.5060   -6.2360  -23.1250 C   0  0  0  0  0  3  0  0  0  0  0  0
   -0.2780   -5.2130  -24.0510 C   0  0  0  0  0  3  0  0  0  0  0  0
   -1.0970   -3.1490  -26.0810 C   0  0  0  0  0  1  0  0  0  0  0  0
   -0.5490   -4.4330  -26.3610 O   0  0  0  0  0  0  0  0  0  0  0  0
    3.1200  -10.8610  -26.3650 N   0  0  0  0  0  0  0  0  0  0  0  0
    3.3790  -11.3040  -27.2320 H   0  0  0  0  0  0  0  0  0  0  0  0
    3.0890   -9.4760  -26.2680 C   0  0  0  0  0  0  0  0  0  0  0  0
    2.6430   -8.9600  -25.1080 N   0  0  0  0  0  0  0  0  0  0  0  0
    2.2340   -7.6930  -25.1310 C   0  0  0  0  0  3  0  0  0  0  0  0
    2.1310   -6.9360  -26.2240 N   0  0  0  0  0  0  0  0  0  0  0  0
    2.6350   -7.4290  -27.3710 C   0  0  0  0  0  0  0  0  0  0  0  0
    2.5390   -6.7260  -28.5760 C   0  0  0  0  0  0  0  0  0  0  0  0
    3.1740   -7.1310  -29.7580 C   0  0  0  0  0  3  0  0  0  0  0  0
    3.8630   -8.3270  -29.7580 C   0  0  0  0  0  0  0  0  0  0  0  0
    3.8610   -9.1280  -28.6260 C   0  0  0  0  0  3  0  0  0  0  0  0
    3.2360   -8.6930  -27.4270 C   0  0  0  0  0  0  0  0  0  0  0  0
    1.6070   -5.5930  -28.6990 C   0  0  0  0  0  0  0  0  0  0  0  0
    2.0720   -4.4080  -28.1960 N   0  0  0  0  0  0  0  0  0  0  0  0
    0.4610   -5.7390  -29.0990 O   0  0  0  0  0  0  0  0  0  0  0  0
    1.4600   -3.6040  -28.2090 H   0  0  0  0  0  0  0  0  0  0  0  0
    3.0070   -4.3020  -27.8250 H   0  0  0  0  0  0  0  0  0  0  0  0
    4.5180   -8.7760  -30.8610 O   0  0  0  0  0  0  0  0  0  0  0  0
    4.5230   -8.0750  -31.5360 H   0  0  0  0  0  0  0  0  0  0  0  0
  1  6  1  0  0  0  0
  2 10  1  0  0  0  0
  3  2  2  0  0  0  0
  4  3  1  0  0  0  0
  5  4  2  0  0  0  0
  5  6  1  0  0  0  0
  6  7  2  0  0  0  0
  7  2  1  0  0  0  0
  8  9  2  0  0  0  0
 10  8  1  0  0  0  0
 10 11  1  0  0  0  0
 12 17  1  0  0  0  0
 13 12  2  0  0  0  0
 13 14  1  0  0  0  0
 14 15  2  0  0  0  0
 15 16  1  0  0  0  0
 15  8  1  0  0  0  0
 17 16  2  0  0  0  0
 19 18  1  0  0  0  0
 19 12  1  0  0  0  0
 20 22  1  0  0  0  0
 20  1  1  0  0  0  0
 21 20  1  0  0  0  0
 22 23  1  0  0  0  0
 24 23  2  0  0  0  0
 25 24  1  0  0  0  0
 26 25  2  0  0  0  0
 27 26  1  0  0  0  0
 28 29  1  0  0  0  0
 28 27  2  0  0  0  0
 29 30  2  0  0  0  0
 30 31  1  0  0  0  0
 31 26  1  0  0  0  0
 31 22  2  0  0  0  0
 32 27  1  0  0  0  0
 32 33  1  0  0  0  0
 33 36  1  0  0  0  0
 34 32  2  0  0  0  0
 35 33  1  0  0  0  0
 37 29  1  0  0  0  0
 38 37  1  0  0  0  0
M  END
>  <minimizedAffinity>
-8.73445606

$$$$
