REMARK  Name = 
REMARK  9 active torsions:
REMARK  status: ('A' for Active; 'I' for Inactive)
REMARK    1  A    between atoms: C_1  and  O_2
REMARK    2  A    between atoms: O_2  and  C_3
REMARK    3  A    between atoms: C_6  and  C_7
REMARK    4  A    between atoms: N_9  and  C_10
REMARK    5  A    between atoms: C_14  and  C_15
REMARK    6  A    between atoms: C_15  and  N_16
REMARK    7  A    between atoms: N_16  and  C_17
REMARK    8  A    between atoms: C_22  and  C_23
REMARK    9  A    between atoms: C_27  and  O_28
REMARK                            x       y       z     vdW  Elec       q    Type
REMARK                         _______ _______ _______ _____ _____    ______ ____
ROOT
ATOM      1  C   UNL     1       5.152   2.093   0.397  0.00  0.00    +0.138 C 
ENDROOT
BRANCH   1   6
ATOM      2  C   UNL     1       4.378   3.283   3.964  0.00  0.00    +0.034 A 
ATOM      3  C   UNL     1       5.447   2.747   4.683  0.00  0.00    +0.023 A 
ATOM      4  C   UNL     1       6.381   1.947   4.037  0.00  0.00    +0.002 A 
ATOM      5  C   UNL     1       6.266   1.713   2.668  0.00  0.00    +0.005 A 
ATOM      6  C   UNL     1       5.269   2.333   1.897  0.00  0.00    -0.029 A 
ATOM      7  C   UNL     1       4.330   3.130   2.570  0.00  0.00    +0.028 A 
BRANCH   2  10
ATOM      8  C   UNL     1       2.035   4.100   4.437  0.00  0.00    +0.248 C 
ATOM      9  O   UNL     1       1.368   4.903   5.085  0.00  0.00    -0.270 OA
ATOM     10  N   UNL     1       3.378   3.937   4.704  0.00  0.00    -0.281 N 
ATOM     11  H   UNL     1       3.641   4.323   5.603  0.00  0.00    +0.155 HD
BRANCH   8  15
ATOM     12  C   UNL     1       0.162   1.701   1.429  0.00  0.00    +0.120 A 
ATOM     13  C   UNL     1      -0.135   3.063   1.545  0.00  0.00    +0.046 A 
ATOM     14  C   UNL     1       0.459   3.838   2.544  0.00  0.00    +0.016 A 
ATOM     15  C   UNL     1       1.354   3.244   3.435  0.00  0.00    +0.037 A 
ATOM     16  C   UNL     1       1.582   1.863   3.379  0.00  0.00    +0.016 A 
ATOM     17  C   UNL     1       0.999   1.095   2.366  0.00  0.00    +0.046 A 
BRANCH  12  19
ATOM     18  C   UNL     1       0.183  -0.141  -0.056  0.00  0.00    +0.277 C 
ATOM     19  O   UNL     1      -0.439   1.063   0.379  0.00  0.00    -0.495 OA
ENDBRANCH  12  19
ENDBRANCH   8  15
ENDBRANCH   2  10
ENDBRANCH   1   6
BRANCH   1  20
ATOM     20  N   UNL     1       6.282   2.628  -0.344  0.00  0.00    -0.324 N 
ATOM     21  H   UNL     1       6.242   3.584  -0.660  0.00  0.00    +0.148 HD
BRANCH  20  22
ATOM     22  C   UNL     1       7.499   1.962  -0.282  0.00  0.00    +0.130 A 
ATOM     23  N   UNL     1       7.453   0.617  -0.278  0.00  0.00    -0.220 NA
ATOM     24  C   UNL     1       8.532  -0.020   0.173  0.00  0.00    +0.223 A 
ATOM     25  N   UNL     1       9.602   0.563   0.715  0.00  0.00    -0.235 NA
ATOM     26  C   UNL     1       9.675   1.906   0.653  0.00  0.00    +0.088 A 
ATOM     27  C   UNL     1      10.738   2.610   1.228  0.00  0.00    +0.066 A 
ATOM     28  C   UNL     1      10.930   3.988   1.062  0.00  0.00    +0.060 A 
ATOM     29  C   UNL     1       9.980   4.705   0.364  0.00  0.00    +0.118 A 
ATOM     30  C   UNL     1       8.835   4.073  -0.098  0.00  0.00    +0.058 A 
ATOM     31  C   UNL     1       8.666   2.671   0.054  0.00  0.00    +0.044 A 
BRANCH  27  32
ATOM     32  C   UNL     1      11.629   1.945   2.194  0.00  0.00    +0.244 C 
ATOM     33  N   UNL     1      11.029   1.569   3.365  0.00  0.00    -0.325 N 
ATOM     34  O   UNL     1      12.834   1.861   2.009  0.00  0.00    -0.270 OA
ATOM     35  H   UNL     1      11.599   1.150   4.087  0.00  0.00    +0.145 HD
ATOM     36  H   UNL     1      10.038   1.681   3.532  0.00  0.00    +0.145 HD
ENDBRANCH  27  32
BRANCH  29  37
ATOM     37  O   UNL     1      10.107   6.041   0.148  0.00  0.00    -0.507 OA
ATOM     38  H   UNL     1      10.993   6.327   0.431  0.00  0.00    +0.292 HD
ENDBRANCH  29  37
ENDBRANCH  20  22
ENDBRANCH   1  20
TORSDOF 8
