REMARK  Name = 
REMARK  6 active torsions:
REMARK  status: ('A' for Active; 'I' for Inactive)
REMARK    1  A    between atoms: C_1  and  O_2
REMARK    2  A    between atoms: O_2  and  C_3
REMARK    3  A    between atoms: C_6  and  O_7
REMARK    4  A    between atoms: O_7  and  C_8
REMARK    5  A    between atoms: N_11  and  C_12
REMARK    6  A    between atoms: C_15  and  C_16
REMARK                            x       y       z     vdW  Elec       q    Type
REMARK                         _______ _______ _______ _____ _____    ______ ____
ROOT
ATOM      1  C   UNL     1       3.739   5.024  -3.973  0.00  0.00    +0.243 A 
ATOM      2  N   UNL     1       3.794   6.170  -3.261  0.00  0.00    -0.178 NA
ATOM      3  C   UNL     1       4.983   6.777  -3.163  0.00  0.00    +0.223 A 
ATOM      4  N   UNL     1       5.113   8.018  -2.549  0.00  0.00    -0.284 N 
ATOM      5  N   UNL     1       6.105   6.288  -3.720  0.00  0.00    -0.221 NA
ATOM      6  C   UNL     1       6.001   5.139  -4.426  0.00  0.00    +0.139 A 
ATOM      7  C   UNL     1       4.824   4.458  -4.606  0.00  0.00    +0.121 A 
ATOM      8 CL   UNL     1       4.755   3.037  -5.557  0.00  0.00    -0.076 Cl
ATOM      9  H   UNL     1       6.041   8.386  -2.699  0.00  0.00    +0.155 HD
ENDROOT
BRANCH   4  10
ATOM     10  C   UNL     1       4.198   8.820  -1.863  0.00  0.00    +0.034 A 
ATOM     11  C   UNL     1       4.360  10.212  -1.893  0.00  0.00    +0.024 A 
ATOM     12  C   UNL     1       3.419  11.068  -1.307  0.00  0.00    +0.018 A 
ATOM     13  C   UNL     1       2.292  10.547  -0.662  0.00  0.00    +0.070 A 
ATOM     14  C   UNL     1       2.139   9.159  -0.604  0.00  0.00    +0.018 A 
ATOM     15  C   UNL     1       3.070   8.310  -1.216  0.00  0.00    +0.024 A 
BRANCH  13  16
ATOM     16  C   UNL     1       1.279  11.407  -0.067  0.00  0.00    +0.373 C 
ATOM     17  N   UNL     1       0.540  11.175   1.000  0.00  0.00    +0.105 NA
ATOM     18  N   UNL     1      -0.288  12.263   1.147  0.00  0.00    +0.113 NA
ATOM     19  N   UNL     1      -0.088  13.144   0.180  0.00  0.00    +0.060 NA
ATOM     20  N   UNL     1       0.876  12.611  -0.581  0.00  0.00    -0.084 N 
ATOM     21  H   UNL     1       1.175  13.088  -1.419  0.00  0.00    +0.329 HD
ENDBRANCH  13  16
ENDBRANCH   4  10
BRANCH   1  22
ATOM     22  O   UNL     1       2.478   4.505  -4.160  0.00  0.00    -0.437 OA
BRANCH  22  26
ATOM     23  C   UNL     1       0.874   1.591  -1.623  0.00  0.00    +0.120 A 
ATOM     24  C   UNL     1       0.180   2.084  -2.728  0.00  0.00    +0.049 A 
ATOM     25  C   UNL     1       0.748   3.064  -3.543  0.00  0.00    +0.050 A 
ATOM     26  C   UNL     1       2.019   3.569  -3.260  0.00  0.00    +0.131 A 
ATOM     27  C   UNL     1       2.708   3.096  -2.141  0.00  0.00    +0.050 A 
ATOM     28  C   UNL     1       2.137   2.106  -1.328  0.00  0.00    +0.049 A 
BRANCH  23  30
ATOM     29  C   UNL     1       0.913   0.020   0.161  0.00  0.00    +0.277 C 
ATOM     30  O   UNL     1       0.212   0.624  -0.919  0.00  0.00    -0.495 OA
ENDBRANCH  23  30
ENDBRANCH  22  26
ENDBRANCH   1  22
TORSDOF 5
