REMARK  Name = 
REMARK  6 active torsions:
REMARK  status: ('A' for Active; 'I' for Inactive)
REMARK    1  A    between atoms: C_3  and  C_5
REMARK    2  A    between atoms: C_5  and  C_6
REMARK    3  A    between atoms: C_6  and  C_7
REMARK    4  A    between atoms: C_11  and  N_12
REMARK    5  A    between atoms: C_21  and  O_22
REMARK    6  A    between atoms: O_22  and  C_23
REMARK                            x       y       z     vdW  Elec       q    Type
REMARK                         _______ _______ _______ _____ _____    ______ ____
ROOT
ATOM      1 CL   UNL     1       1.012   0.045   0.089  0.00  0.00    -0.145 Cl
ATOM      2  H   UNL     1       2.342   0.045   0.089  0.00  0.00    +0.145 HD
ENDROOT
TORSDOF 0
REMARK  Name = 
REMARK  6 active torsions:
REMARK  status: ('A' for Active; 'I' for Inactive)
REMARK    1  A    between atoms: C_3  and  C_5
REMARK    2  A    between atoms: C_5  and  C_6
REMARK    3  A    between atoms: C_6  and  C_7
REMARK    4  A    between atoms: C_11  and  N_12
REMARK    5  A    between atoms: C_21  and  O_22
REMARK    6  A    between atoms: O_22  and  C_23
REMARK                            x       y       z     vdW  Elec       q    Type
REMARK                         _______ _______ _______ _____ _____    ______ ____
ROOT
ATOM      1  C   UNL     1       2.942  -1.013   0.766  0.00  0.00    +0.016 C 
ATOM      2  C   UNL     1       2.689  -0.757   2.257  0.00  0.00    +0.017 C 
ATOM      3  C   UNL     1       3.269  -1.866   3.127  0.00  0.00    +0.045 C 
ATOM      4  C   UNL     1       2.722  -3.227   2.724  0.00  0.00    +0.174 C 
ATOM      5  C   UNL     1       2.992  -3.481   1.247  0.00  0.00    +0.045 C 
ATOM      6  C   UNL     1       2.398  -2.384   0.374  0.00  0.00    +0.017 C 
ENDROOT
BRANCH   1   8
ATOM      7  O   UNL     1       5.091   0.101   0.778  0.00  0.00    -0.549 OA
ATOM      8  C   UNL     1       4.436  -0.950   0.491  0.00  0.00    +0.048 C 
ATOM      9  O   UNL     1       5.100  -2.065  -0.086  0.00  0.00    -0.549 OA
ENDBRANCH   1   8
BRANCH   1  10
ATOM     10  C   UNL     1       2.182   0.032  -0.034  0.00  0.00    +0.068 C 
BRANCH  10  11
ATOM     11  C   UNL     1       2.743   1.371   0.417  0.00  0.00    +0.044 A 
ATOM     12  C   UNL     1       4.072   1.657   0.173  0.00  0.00    +0.023 A 
ATOM     13  C   UNL     1       4.619   2.847   0.658  0.00  0.00    +0.005 A 
ATOM     14  C   UNL     1       3.779   3.705   1.357  0.00  0.00    +0.044 A 
ATOM     15  C   UNL     1       2.460   3.354   1.533  0.00  0.00    +0.125 A 
ATOM     16  N   UNL     1       1.937   2.207   1.090  0.00  0.00    -0.237 NA
BRANCH  15  17
ATOM     17  N   UNL     1       1.581   4.290   2.248  0.00  0.00    -0.279 N 
ATOM     18  C   UNL     1       0.165   3.954   2.458  0.00  0.00    +0.163 A 
ATOM     19  N   UNL     1      -0.139   2.881   3.129  0.00  0.00    -0.233 NA
ATOM     20  C   UNL     1      -1.499   2.621   3.123  0.00  0.00    +0.120 A 
ATOM     21  C   UNL     1      -2.228   3.525   2.394  0.00  0.00    +0.068 A 
ATOM     22  S   UNL     1      -1.183   4.746   1.718  0.00  0.00    -0.061 S 
ATOM     23  H   UNL     1       1.952   5.173   2.597  0.00  0.00    +0.155 HD
ENDBRANCH  15  17
ENDBRANCH  10  11
ENDBRANCH   1  10
BRANCH   4  24
ATOM     24  O   UNL     1       1.321  -3.252   2.953  0.00  0.00    -0.489 OA
BRANCH  24  25
ATOM     25  C   UNL     1       0.476  -2.328   2.284  0.00  0.00    +0.122 A 
ATOM     26  C   UNL     1       0.479  -2.373   0.899  0.00  0.00    +0.046 A 
ATOM     27  C   UNL     1      -0.386  -1.567   0.167  0.00  0.00    +0.005 A 
ATOM     28  C   UNL     1      -1.245  -0.694   0.827  0.00  0.00    +0.020 A 
ATOM     29  C   UNL     1      -1.211  -0.641   2.210  0.00  0.00    +0.044 A 
ATOM     30 CL   UNL     1      -2.276   0.465   3.023  0.00  0.00    -0.083 Cl
ATOM     31  C   UNL     1      -0.385  -1.465   2.961  0.00  0.00    +0.065 A 
ENDBRANCH  24  25
ENDBRANCH   4  24
TORSDOF 6
