
 OpenBabel10152418153D

 39 43  0  0  0  0  0  0  0  0999 V2000
    1.7100  -11.8670  -26.3620 C   0  0  0  0  0  0  0  0  0  0  0  0
    2.3460  -12.0390  -25.1300 C   0  0  0  0  0  3  0  0  0  0  0  0
    3.7270  -11.8850  -25.0340 C   0  0  0  0  0  3  0  0  0  0  0  0
    4.4820  -11.5820  -26.1710 C   0  0  0  0  0  3  0  0  0  0  0  0
    3.8750  -11.4620  -27.4230 C   0  0  0  0  0  0  0  0  0  0  0  0
    2.4860  -11.5740  -27.5010 C   0  0  0  0  0  3  0  0  0  0  0  0
    4.5680  -11.2040  -28.6240 N   0  0  0  0  0  0  0  0  0  0  0  0
    4.4680  -10.1610  -29.5190 C   0  0  0  0  0  0  0  0  0  0  0  0
    4.9730  -10.2330  -30.6360 O   0  0  0  0  0  0  0  0  0  0  0  0
    5.2690  -11.8820  -28.9000 H   0  0  0  0  0  0  0  0  0  0  0  0
    3.8190   -8.9020  -29.1100 C   0  0  0  0  0  0  0  0  0  0  0  0
    3.9060   -7.7840  -29.9650 C   0  0  0  0  0  3  0  0  0  0  0  0
    3.1620   -6.6340  -29.6870 C   0  0  0  0  0  3  0  0  0  0  0  0
    2.3640   -6.6450  -28.5600 C   0  0  0  0  0  0  0  0  0  0  0  0
    2.3330   -7.7200  -27.6970 C   0  0  0  0  0  0  0  0  0  0  0  0
    3.0690   -8.8590  -27.9280 C   0  0  0  0  0  3  0  0  0  0  0  0
    1.4700   -7.5330  -26.6610 O   0  0  0  0  0  0  0  0  0  0  0  0
    0.8760   -6.2910  -27.0620 C   0  0  0  0  0  0  0  0  0  0  0  0
   -0.4190   -6.5250  -27.3900 F   0  0  0  0  0  0  0  0  0  0  0  0
    0.8870   -5.4420  -26.0070 F   0  0  0  0  0  0  0  0  0  0  0  0
    1.5170   -5.6530  -28.1770 O   0  0  0  0  0  0  0  0  0  0  0  0
    0.2150  -12.0390  -26.5010 C   0  0  0  0  0  2  0  0  0  0  0  0
   -1.7740   -9.3330  -21.4180 C   0  0  0  0  0  0  0  0  0  0  0  0
   -1.7820  -10.4380  -20.5500 C   0  0  0  0  0  3  0  0  0  0  0  0
   -1.4400  -11.6890  -21.0320 C   0  0  0  0  0  3  0  0  0  0  0  0
   -1.1020  -11.8250  -22.3750 C   0  0  0  0  0  3  0  0  0  0  0  0
   -1.1060  -10.7110  -23.2590 C   0  0  0  0  0  0  0  0  0  0  0  0
   -0.7670  -10.7860  -24.6260 C   0  0  0  0  0  0  0  0  0  0  0  0
   -0.3730  -11.9970  -25.1790 N   0  0  0  0  0  0  0  0  0  0  0  0
   -0.7300   -9.7000  -25.4130 N   0  0  0  0  0  0  0  0  0  0  0  0
   -1.0510   -8.5370  -24.8480 C   0  0  0  0  0  3  0  0  0  0  0  0
   -1.3910   -8.3530  -23.5720 N   0  0  0  0  0  0  0  0  0  0  0  0
   -1.4360   -9.4340  -22.7740 C   0  0  0  0  0  0  0  0  0  0  0  0
   -0.8980  -12.8150  -24.9070 H   0  0  0  0  0  0  0  0  0  0  0  0
   -2.4690   -7.0520  -21.7600 N   0  0  0  0  0  0  0  0  0  0  0  0
   -2.1560   -8.0240  -20.8500 C   0  0  0  0  0  0  0  0  0  0  0  0
   -2.1410   -7.8000  -19.6470 O   0  0  0  0  0  0  0  0  0  0  0  0
   -2.7350   -6.1450  -21.3980 H   0  0  0  0  0  0  0  0  0  0  0  0
   -2.5180   -7.2160  -22.7550 H   0  0  0  0  0  0  0  0  0  0  0  0
  1  2  1  0  0  0  0
  2  3  2  0  0  0  0
  4  3  1  0  0  0  0
  5  4  2  0  0  0  0
  6  5  1  0  0  0  0
  6  1  2  0  0  0  0
  7  5  1  0  0  0  0
  8 11  1  0  0  0  0
  8  7  1  0  0  0  0
  9  8  2  0  0  0  0
 10  7  1  0  0  0  0
 11 16  1  0  0  0  0
 12 13  1  0  0  0  0
 12 11  2  0  0  0  0
 13 14  2  0  0  0  0
 14 21  1  0  0  0  0
 14 15  1  0  0  0  0
 15 17  1  0  0  0  0
 16 15  2  0  0  0  0
 18 17  1  0  0  0  0
 18 20  1  0  0  0  0
 19 18  1  0  0  0  0
 21 18  1  0  0  0  0
 22  1  1  0  0  0  0
 22 29  1  0  0  0  0
 23 36  1  0  0  0  0
 23 24  1  0  0  0  0
 25 24  2  0  0  0  0
 26 25  1  0  0  0  0
 27 33  1  0  0  0  0
 27 26  2  0  0  0  0
 28 27  1  0  0  0  0
 29 34  1  0  0  0  0
 29 28  1  0  0  0  0
 30 31  1  0  0  0  0
 30 28  2  0  0  0  0
 31 32  2  0  0  0  0
 32 33  1  0  0  0  0
 33 23  2  0  0  0  0
 35 38  1  0  0  0  0
 35 36  1  0  0  0  0
 36 37  2  0  0  0  0
 39 35  1  0  0  0  0
M  END
>  <minimizedAffinity>
-8.26852036

$$$$
