
 OpenBabel10152418153D

 39 43  0  0  0  0  0  0  0  0999 V2000
    1.0810  -11.5130  -24.5740 C   0  0  0  0  0  0  0  0  0  0  0  0
    0.3400  -11.9840  -25.6600 C   0  0  0  0  0  3  0  0  0  0  0  0
   -1.0190  -11.6940  -25.7520 C   0  0  0  0  0  3  0  0  0  0  0  0
   -1.6490  -10.9510  -24.7500 C   0  0  0  0  0  3  0  0  0  0  0  0
   -0.9410  -10.5170  -23.6270 C   0  0  0  0  0  0  0  0  0  0  0  0
    0.4300  -10.7750  -23.5660 C   0  0  0  0  0  3  0  0  0  0  0  0
   -1.5090   -9.8040  -22.5520 N   0  0  0  0  0  0  0  0  0  0  0  0
   -1.5170   -8.4560  -22.2640 C   0  0  0  0  0  0  0  0  0  0  0  0
   -1.8450   -8.0450  -21.1550 O   0  0  0  0  0  0  0  0  0  0  0  0
   -2.0070  -10.3480  -21.8560 H   0  0  0  0  0  0  0  0  0  0  0  0
   -1.2120   -7.4770  -23.3240 C   0  0  0  0  0  0  0  0  0  0  0  0
   -0.7150   -6.2100  -22.9560 C   0  0  0  0  0  3  0  0  0  0  0  0
   -0.2570   -5.3280  -23.9400 C   0  0  0  0  0  3  0  0  0  0  0  0
   -0.3220   -5.7470  -25.2540 C   0  0  0  0  0  0  0  0  0  0  0  0
   -0.8650   -6.9640  -25.6090 C   0  0  0  0  0  0  0  0  0  0  0  0
   -1.3440   -7.8460  -24.6700 C   0  0  0  0  0  3  0  0  0  0  0  0
   -0.8140   -7.1870  -26.9500 O   0  0  0  0  0  0  0  0  0  0  0  0
   -0.0560   -6.0410  -27.3580 C   0  0  0  0  0  0  0  0  0  0  0  0
    1.1590   -6.4660  -27.7880 F   0  0  0  0  0  0  0  0  0  0  0  0
   -0.6810   -5.4530  -28.4060 F   0  0  0  0  0  0  0  0  0  0  0  0
    0.1470   -5.0600  -26.3300 O   0  0  0  0  0  0  0  0  0  0  0  0
    2.5540  -11.8210  -24.4390 C   0  0  0  0  0  2  0  0  0  0  0  0
    4.1620   -9.4040  -29.7960 C   0  0  0  0  0  0  0  0  0  0  0  0
    4.3390  -10.5810  -30.5430 C   0  0  0  0  0  3  0  0  0  0  0  0
    4.1810  -11.8110  -29.9290 C   0  0  0  0  0  3  0  0  0  0  0  0
    3.8570  -11.8530  -28.5760 C   0  0  0  0  0  3  0  0  0  0  0  0
    3.6900  -10.6630  -27.8140 C   0  0  0  0  0  0  0  0  0  0  0  0
    3.3560  -10.6430  -26.4440 C   0  0  0  0  0  0  0  0  0  0  0  0
    3.1400  -11.8330  -25.7630 N   0  0  0  0  0  0  0  0  0  0  0  0
    3.1530   -9.4970  -25.7760 N   0  0  0  0  0  0  0  0  0  0  0  0
    3.3040   -8.3650  -26.4640 C   0  0  0  0  0  3  0  0  0  0  0  0
    3.6240   -8.2700  -27.7540 N   0  0  0  0  0  0  0  0  0  0  0  0
    3.8320   -9.4100  -28.4340 C   0  0  0  0  0  0  0  0  0  0  0  0
    3.7820  -12.5890  -25.9520 H   0  0  0  0  0  0  0  0  0  0  0  0
    4.9420   -7.1260  -29.7740 N   0  0  0  0  0  0  0  0  0  0  0  0
    4.3510   -8.1210  -30.5020 C   0  0  0  0  0  0  0  0  0  0  0  0
    3.9570   -7.9360  -31.6460 O   0  0  0  0  0  0  0  0  0  0  0  0
    5.0850   -6.2350  -30.2330 H   0  0  0  0  0  0  0  0  0  0  0  0
    5.3040   -7.2580  -28.8400 H   0  0  0  0  0  0  0  0  0  0  0  0
  1 22  1  0  0  0  0
  1  6  1  0  0  0  0
  2  1  2  0  0  0  0
  3  2  1  0  0  0  0
  3  4  2  0  0  0  0
  4  5  1  0  0  0  0
  5  6  2  0  0  0  0
  5  7  1  0  0  0  0
  7  8  1  0  0  0  0
  7 10  1  0  0  0  0
  8  9  2  0  0  0  0
 11 12  1  0  0  0  0
 11  8  1  0  0  0  0
 13 12  2  0  0  0  0
 14 13  1  0  0  0  0
 15 14  2  0  0  0  0
 15 16  1  0  0  0  0
 16 11  2  0  0  0  0
 17 15  1  0  0  0  0
 18 17  1  0  0  0  0
 18 21  1  0  0  0  0
 19 18  1  0  0  0  0
 20 18  1  0  0  0  0
 21 14  1  0  0  0  0
 23 33  1  0  0  0  0
 24 25  1  0  0  0  0
 24 23  2  0  0  0  0
 25 26  2  0  0  0  0
 26 27  1  0  0  0  0
 27 28  1  0  0  0  0
 28 30  2  0  0  0  0
 28 29  1  0  0  0  0
 29 22  1  0  0  0  0
 31 30  1  0  0  0  0
 32 31  2  0  0  0  0
 33 27  2  0  0  0  0
 33 32  1  0  0  0  0
 34 29  1  0  0  0  0
 35 39  1  0  0  0  0
 36 23  1  0  0  0  0
 36 35  1  0  0  0  0
 37 36  2  0  0  0  0
 38 35  1  0  0  0  0
M  END
>  <minimizedAffinity>
-9.48420238

$$$$

 OpenBabel10152418153D

 39 43  0  0  0  0  0  0  0  0999 V2000
    2.3840  -11.4900  -26.7850 C   0  0  0  0  0  0  0  0  0  0  0  0
    3.2580  -12.0380  -25.8440 C   0  0  0  0  0  3  0  0  0  0  0  0
    4.5420  -11.5180  -25.7030 C   0  0  0  0  0  3  0  0  0  0  0  0
    4.9690  -10.4640  -26.5160 C   0  0  0  0  0  3  0  0  0  0  0  0
    4.1320   -9.9380  -27.5030 C   0  0  0  0  0  0  0  0  0  0  0  0
    2.8320  -10.4360  -27.6070 C   0  0  0  0  0  3  0  0  0  0  0  0
    4.4990   -8.9090  -28.3940 N   0  0  0  0  0  0  0  0  0  0  0  0
    3.8320   -7.7660  -28.7790 C   0  0  0  0  0  0  0  0  0  0  0  0
    4.1980   -7.1150  -29.7540 O   0  0  0  0  0  0  0  0  0  0  0  0
    5.4050   -8.9940  -28.8400 H   0  0  0  0  0  0  0  0  0  0  0  0
    2.7130   -7.2590  -27.9640 C   0  0  0  0  0  0  0  0  0  0  0  0
    2.7320   -7.4780  -26.5710 C   0  0  0  0  0  3  0  0  0  0  0  0
    1.7770   -6.8640  -25.7560 C   0  0  0  0  0  3  0  0  0  0  0  0
    0.8350   -6.0610  -26.3680 C   0  0  0  0  0  0  0  0  0  0  0  0
    0.7860   -5.9020  -27.7360 C   0  0  0  0  0  0  0  0  0  0  0  0
    1.6970   -6.5080  -28.5700 C   0  0  0  0  0  3  0  0  0  0  0  0
   -0.2050   -5.0570  -28.1290 O   0  0  0  0  0  0  0  0  0  0  0  0
   -0.6640   -4.6090  -26.8470 C   0  0  0  0  0  0  0  0  0  0  0  0
   -0.3410   -3.2990  -26.7130 F   0  0  0  0  0  0  0  0  0  0  0  0
   -2.0140   -4.7060  -26.8080 F   0  0  0  0  0  0  0  0  0  0  0  0
   -0.1160   -5.3270  -25.7310 O   0  0  0  0  0  0  0  0  0  0  0  0
    0.9890  -12.0390  -26.9710 C   0  0  0  0  0  2  0  0  0  0  0  0
   -1.9190   -9.3440  -22.3440 C   0  0  0  0  0  0  0  0  0  0  0  0
   -1.7490  -10.3270  -21.3540 C   0  0  0  0  0  3  0  0  0  0  0  0
   -1.1060  -11.5110  -21.6690 C   0  0  0  0  0  3  0  0  0  0  0  0
   -0.6470  -11.7050  -22.9680 C   0  0  0  0  0  3  0  0  0  0  0  0
   -0.8300  -10.7170  -23.9760 C   0  0  0  0  0  0  0  0  0  0  0  0
   -0.3820  -10.8550  -25.3060 C   0  0  0  0  0  0  0  0  0  0  0  0
    0.3090  -11.9950  -25.6940 N   0  0  0  0  0  0  0  0  0  0  0  0
   -0.5250   -9.8760  -26.2120 N   0  0  0  0  0  0  0  0  0  0  0  0
   -1.1350   -8.7630  -25.8040 C   0  0  0  0  0  3  0  0  0  0  0  0
   -1.6020   -8.5310  -24.5770 N   0  0  0  0  0  0  0  0  0  0  0  0
   -1.4670   -9.5060  -23.6610 C   0  0  0  0  0  0  0  0  0  0  0  0
   -0.0430  -12.8790  -25.3540 H   0  0  0  0  0  0  0  0  0  0  0  0
   -3.8020   -7.8640  -22.5980 N   0  0  0  0  0  0  0  0  0  0  0  0
   -2.6200   -8.1050  -21.9540 C   0  0  0  0  0  0  0  0  0  0  0  0
   -2.1520   -7.3120  -21.1470 O   0  0  0  0  0  0  0  0  0  0  0  0
   -4.3040   -7.0210  -22.3490 H   0  0  0  0  0  0  0  0  0  0  0  0
   -4.2260   -8.5130  -23.2450 H   0  0  0  0  0  0  0  0  0  0  0  0
  1  2  1  0  0  0  0
  2  3  2  0  0  0  0
  4  3  1  0  0  0  0
  5  4  2  0  0  0  0
  6  5  1  0  0  0  0
  6  1  2  0  0  0  0
  7  5  1  0  0  0  0
  8  7  1  0  0  0  0
  8 11  1  0  0  0  0
  9  8  2  0  0  0  0
 10  7  1  0  0  0  0
 11 12  1  0  0  0  0
 12 13  2  0  0  0  0
 14 13  1  0  0  0  0
 14 21  1  0  0  0  0
 15 14  2  0  0  0  0
 16 11  2  0  0  0  0
 16 15  1  0  0  0  0
 17 15  1  0  0  0  0
 17 18  1  0  0  0  0
 18 20  1  0  0  0  0
 18 19  1  0  0  0  0
 18 21  1  0  0  0  0
 22  1  1  0  0  0  0
 22 29  1  0  0  0  0
 23 36  1  0  0  0  0
 23 24  1  0  0  0  0
 25 24  2  0  0  0  0
 26 25  1  0  0  0  0
 27 33  1  0  0  0  0
 27 26  2  0  0  0  0
 28 27  1  0  0  0  0
 29 34  1  0  0  0  0
 29 28  1  0  0  0  0
 30 31  1  0  0  0  0
 30 28  2  0  0  0  0
 31 32  2  0  0  0  0
 32 33  1  0  0  0  0
 33 23  2  0  0  0  0
 35 38  1  0  0  0  0
 35 36  1  0  0  0  0
 36 37  2  0  0  0  0
 39 35  1  0  0  0  0
M  END
>  <minimizedAffinity>
-9.24177074

$$$$

 OpenBabel10152418153D

 39 43  0  0  0  0  0  0  0  0999 V2000
    0.9630  -11.3300  -24.8340 C   0  0  0  0  0  0  0  0  0  0  0  0
    0.1600  -11.7270  -25.9060 C   0  0  0  0  0  3  0  0  0  0  0  0
   -1.1470  -11.2580  -26.0050 C   0  0  0  0  0  3  0  0  0  0  0  0
   -1.6670  -10.4100  -25.0240 C   0  0  0  0  0  3  0  0  0  0  0  0
   -0.9010  -10.0450  -23.9140 C   0  0  0  0  0  0  0  0  0  0  0  0
    0.4220  -10.4840  -23.8460 C   0  0  0  0  0  3  0  0  0  0  0  0
   -1.3640   -9.2320  -22.8590 N   0  0  0  0  0  0  0  0  0  0  0  0
   -1.2470   -7.8760  -22.6440 C   0  0  0  0  0  0  0  0  0  0  0  0
   -1.4940   -7.3830  -21.5470 O   0  0  0  0  0  0  0  0  0  0  0  0
   -1.8770   -9.6960  -22.1180 H   0  0  0  0  0  0  0  0  0  0  0  0
   -0.9050   -6.9820  -23.7650 C   0  0  0  0  0  0  0  0  0  0  0  0
   -0.5660   -7.5520  -25.0100 C   0  0  0  0  0  3  0  0  0  0  0  0
   -0.4050   -6.7330  -26.1310 C   0  0  0  0  0  3  0  0  0  0  0  0
   -0.5810   -5.3740  -25.9610 C   0  0  0  0  0  0  0  0  0  0  0  0
   -0.8520   -4.8200  -24.7270 C   0  0  0  0  0  0  0  0  0  0  0  0
   -0.9960   -5.5940  -23.6000 C   0  0  0  0  0  3  0  0  0  0  0  0
   -1.0070   -3.4690  -24.7840 O   0  0  0  0  0  0  0  0  0  0  0  0
   -0.9410   -3.2770  -26.2030 C   0  0  0  0  0  0  0  0  0  0  0  0
   -2.1670   -2.8920  -26.6370 F   0  0  0  0  0  0  0  0  0  0  0  0
   -0.0760   -2.2700  -26.4680 F   0  0  0  0  0  0  0  0  0  0  0  0
   -0.5420   -4.4380  -26.9470 O   0  0  0  0  0  0  0  0  0  0  0  0
    2.3820  -11.8310  -24.6920 C   0  0  0  0  0  2  0  0  0  0  0  0
    4.3310   -9.1970  -29.8280 C   0  0  0  0  0  0  0  0  0  0  0  0
    4.4500  -10.3330  -30.6460 C   0  0  0  0  0  3  0  0  0  0  0  0
    4.1870  -11.5860  -30.1200 C   0  0  0  0  0  3  0  0  0  0  0  0
    3.8160  -11.6910  -28.7830 C   0  0  0  0  0  3  0  0  0  0  0  0
    3.7070  -10.5430  -27.9490 C   0  0  0  0  0  0  0  0  0  0  0  0
    3.3300  -10.5870  -26.5900 C   0  0  0  0  0  0  0  0  0  0  0  0
    3.0090  -11.8000  -25.9960 N   0  0  0  0  0  0  0  0  0  0  0  0
    3.1860   -9.4750  -25.8540 N   0  0  0  0  0  0  0  0  0  0  0  0
    3.4380   -8.3150  -26.4600 C   0  0  0  0  0  3  0  0  0  0  0  0
    3.8060   -8.1600  -27.7310 N   0  0  0  0  0  0  0  0  0  0  0  0
    3.9570   -9.2670  -28.4790 C   0  0  0  0  0  0  0  0  0  0  0  0
    3.6020  -12.5870  -26.2160 H   0  0  0  0  0  0  0  0  0  0  0  0
    4.6570   -6.8230  -29.5840 N   0  0  0  0  0  0  0  0  0  0  0  0
    4.6330   -7.8880  -30.4410 C   0  0  0  0  0  0  0  0  0  0  0  0
    4.7980   -7.7490  -31.6460 O   0  0  0  0  0  0  0  0  0  0  0  0
    4.8620   -5.9130  -29.9770 H   0  0  0  0  0  0  0  0  0  0  0  0
    4.5540   -6.9110  -28.5830 H   0  0  0  0  0  0  0  0  0  0  0  0
  1 22  1  0  0  0  0
  1  6  1  0  0  0  0
  2  1  2  0  0  0  0
  3  2  1  0  0  0  0
  3  4  2  0  0  0  0
  4  5  1  0  0  0  0
  5  6  2  0  0  0  0
  5  7  1  0  0  0  0
  7  8  1  0  0  0  0
  7 10  1  0  0  0  0
  8  9  2  0  0  0  0
 11 16  1  0  0  0  0
 11  8  1  0  0  0  0
 12 11  2  0  0  0  0
 13 14  2  0  0  0  0
 13 12  1  0  0  0  0
 14 15  1  0  0  0  0
 15 16  2  0  0  0  0
 17 15  1  0  0  0  0
 18 17  1  0  0  0  0
 19 18  1  0  0  0  0
 20 18  1  0  0  0  0
 21 18  1  0  0  0  0
 21 14  1  0  0  0  0
 23 33  1  0  0  0  0
 24 25  1  0  0  0  0
 24 23  2  0  0  0  0
 25 26  2  0  0  0  0
 26 27  1  0  0  0  0
 27 28  1  0  0  0  0
 28 29  1  0  0  0  0
 28 30  2  0  0  0  0
 29 22  1  0  0  0  0
 31 30  1  0  0  0  0
 32 31  2  0  0  0  0
 33 27  2  0  0  0  0
 33 32  1  0  0  0  0
 34 29  1  0  0  0  0
 35 39  1  0  0  0  0
 36 23  1  0  0  0  0
 36 35  1  0  0  0  0
 37 36  2  0  0  0  0
 38 35  1  0  0  0  0
M  END
>  <minimizedAffinity>
-8.36155033

$$$$

 OpenBabel10152418153D

 39 43  0  0  0  0  0  0  0  0999 V2000
    1.7100  -11.8670  -26.3620 C   0  0  0  0  0  0  0  0  0  0  0  0
    2.3460  -12.0390  -25.1300 C   0  0  0  0  0  3  0  0  0  0  0  0
    3.7270  -11.8850  -25.0340 C   0  0  0  0  0  3  0  0  0  0  0  0
    4.4820  -11.5820  -26.1710 C   0  0  0  0  0  3  0  0  0  0  0  0
    3.8750  -11.4620  -27.4230 C   0  0  0  0  0  0  0  0  0  0  0  0
    2.4860  -11.5740  -27.5010 C   0  0  0  0  0  3  0  0  0  0  0  0
    4.5680  -11.2040  -28.6240 N   0  0  0  0  0  0  0  0  0  0  0  0
    4.4680  -10.1610  -29.5190 C   0  0  0  0  0  0  0  0  0  0  0  0
    4.9730  -10.2330  -30.6360 O   0  0  0  0  0  0  0  0  0  0  0  0
    5.2690  -11.8820  -28.9000 H   0  0  0  0  0  0  0  0  0  0  0  0
    3.8190   -8.9020  -29.1100 C   0  0  0  0  0  0  0  0  0  0  0  0
    3.9060   -7.7840  -29.9650 C   0  0  0  0  0  3  0  0  0  0  0  0
    3.1620   -6.6340  -29.6870 C   0  0  0  0  0  3  0  0  0  0  0  0
    2.3640   -6.6450  -28.5600 C   0  0  0  0  0  0  0  0  0  0  0  0
    2.3330   -7.7200  -27.6970 C   0  0  0  0  0  0  0  0  0  0  0  0
    3.0690   -8.8590  -27.9280 C   0  0  0  0  0  3  0  0  0  0  0  0
    1.4700   -7.5330  -26.6610 O   0  0  0  0  0  0  0  0  0  0  0  0
    0.8760   -6.2910  -27.0620 C   0  0  0  0  0  0  0  0  0  0  0  0
   -0.4190   -6.5250  -27.3900 F   0  0  0  0  0  0  0  0  0  0  0  0
    0.8870   -5.4420  -26.0070 F   0  0  0  0  0  0  0  0  0  0  0  0
    1.5170   -5.6530  -28.1770 O   0  0  0  0  0  0  0  0  0  0  0  0
    0.2150  -12.0390  -26.5010 C   0  0  0  0  0  2  0  0  0  0  0  0
   -1.7740   -9.3330  -21.4180 C   0  0  0  0  0  0  0  0  0  0  0  0
   -1.7820  -10.4380  -20.5500 C   0  0  0  0  0  3  0  0  0  0  0  0
   -1.4400  -11.6890  -21.0320 C   0  0  0  0  0  3  0  0  0  0  0  0
   -1.1020  -11.8250  -22.3750 C   0  0  0  0  0  3  0  0  0  0  0  0
   -1.1060  -10.7110  -23.2590 C   0  0  0  0  0  0  0  0  0  0  0  0
   -0.7670  -10.7860  -24.6260 C   0  0  0  0  0  0  0  0  0  0  0  0
   -0.3730  -11.9970  -25.1790 N   0  0  0  0  0  0  0  0  0  0  0  0
   -0.7300   -9.7000  -25.4130 N   0  0  0  0  0  0  0  0  0  0  0  0
   -1.0510   -8.5370  -24.8480 C   0  0  0  0  0  3  0  0  0  0  0  0
   -1.3910   -8.3530  -23.5720 N   0  0  0  0  0  0  0  0  0  0  0  0
   -1.4360   -9.4340  -22.7740 C   0  0  0  0  0  0  0  0  0  0  0  0
   -0.8980  -12.8150  -24.9070 H   0  0  0  0  0  0  0  0  0  0  0  0
   -2.4690   -7.0520  -21.7600 N   0  0  0  0  0  0  0  0  0  0  0  0
   -2.1560   -8.0240  -20.8500 C   0  0  0  0  0  0  0  0  0  0  0  0
   -2.1410   -7.8000  -19.6470 O   0  0  0  0  0  0  0  0  0  0  0  0
   -2.7350   -6.1450  -21.3980 H   0  0  0  0  0  0  0  0  0  0  0  0
   -2.5180   -7.2160  -22.7550 H   0  0  0  0  0  0  0  0  0  0  0  0
  1  2  1  0  0  0  0
  2  3  2  0  0  0  0
  4  3  1  0  0  0  0
  5  4  2  0  0  0  0
  6  5  1  0  0  0  0
  6  1  2  0  0  0  0
  7  5  1  0  0  0  0
  8 11  1  0  0  0  0
  8  7  1  0  0  0  0
  9  8  2  0  0  0  0
 10  7  1  0  0  0  0
 11 16  1  0  0  0  0
 12 13  1  0  0  0  0
 12 11  2  0  0  0  0
 13 14  2  0  0  0  0
 14 21  1  0  0  0  0
 14 15  1  0  0  0  0
 15 17  1  0  0  0  0
 16 15  2  0  0  0  0
 18 17  1  0  0  0  0
 18 20  1  0  0  0  0
 19 18  1  0  0  0  0
 21 18  1  0  0  0  0
 22  1  1  0  0  0  0
 22 29  1  0  0  0  0
 23 36  1  0  0  0  0
 23 24  1  0  0  0  0
 25 24  2  0  0  0  0
 26 25  1  0  0  0  0
 27 33  1  0  0  0  0
 27 26  2  0  0  0  0
 28 27  1  0  0  0  0
 29 34  1  0  0  0  0
 29 28  1  0  0  0  0
 30 31  1  0  0  0  0
 30 28  2  0  0  0  0
 31 32  2  0  0  0  0
 32 33  1  0  0  0  0
 33 23  2  0  0  0  0
 35 38  1  0  0  0  0
 35 36  1  0  0  0  0
 36 37  2  0  0  0  0
 39 35  1  0  0  0  0
M  END
>  <minimizedAffinity>
-8.26852036

$$$$

 OpenBabel10152418153D

 39 43  0  0  0  0  0  0  0  0999 V2000
   -0.0770  -10.4890  -24.0400 C   0  0  0  0  0  0  0  0  0  0  0  0
   -1.0230  -10.8070  -25.0170 C   0  0  0  0  0  3  0  0  0  0  0  0
   -2.0620   -9.9220  -25.2920 C   0  0  0  0  0  3  0  0  0  0  0  0
   -2.1770   -8.7270  -24.5770 C   0  0  0  0  0  3  0  0  0  0  0  0
   -1.2750   -8.4140  -23.5560 C   0  0  0  0  0  0  0  0  0  0  0  0
   -0.2120   -9.2860  -23.3190 C   0  0  0  0  0  3  0  0  0  0  0  0
   -1.3460   -7.2540  -22.7580 N   0  0  0  0  0  0  0  0  0  0  0  0
   -0.9590   -5.9560  -23.0130 C   0  0  0  0  0  0  0  0  0  0  0  0
   -0.8670   -5.1310  -22.1080 O   0  0  0  0  0  0  0  0  0  0  0  0
   -1.7490   -7.3610  -21.8340 H   0  0  0  0  0  0  0  0  0  0  0  0
   -0.7340   -5.5170  -24.4030 C   0  0  0  0  0  0  0  0  0  0  0  0
   -1.1070   -4.2080  -24.7710 C   0  0  0  0  0  3  0  0  0  0  0  0
   -0.7500   -3.7080  -26.0270 C   0  0  0  0  0  3  0  0  0  0  0  0
   -0.0400   -4.5420  -26.8680 C   0  0  0  0  0  0  0  0  0  0  0  0
    0.2670   -5.8410  -26.5230 C   0  0  0  0  0  0  0  0  0  0  0  0
   -0.0870   -6.3710  -25.3050 C   0  0  0  0  0  3  0  0  0  0  0  0
    0.9850   -6.4800  -27.4860 O   0  0  0  0  0  0  0  0  0  0  0  0
    1.2030   -5.3900  -28.3910 C   0  0  0  0  0  0  0  0  0  0  0  0
    2.5230   -5.0810  -28.3740 F   0  0  0  0  0  0  0  0  0  0  0  0
    0.8910   -5.7940  -29.6450 F   0  0  0  0  0  0  0  0  0  0  0  0
    0.4560   -4.2020  -28.0880 O   0  0  0  0  0  0  0  0  0  0  0  0
    1.0560  -11.4340  -23.7100 C   0  0  0  0  0  2  0  0  0  0  0  0
    4.0390   -9.6730  -28.7230 C   0  0  0  0  0  0  0  0  0  0  0  0
    4.0890  -10.8980  -29.4100 C   0  0  0  0  0  3  0  0  0  0  0  0
    3.5710  -12.0360  -28.8180 C   0  0  0  0  0  3  0  0  0  0  0  0
    3.0170  -11.9420  -27.5450 C   0  0  0  0  0  3  0  0  0  0  0  0
    2.9760  -10.7060  -26.8420 C   0  0  0  0  0  0  0  0  0  0  0  0
    2.4220  -10.5480  -25.5540 C   0  0  0  0  0  0  0  0  0  0  0  0
    1.8450  -11.6330  -24.9070 N   0  0  0  0  0  0  0  0  0  0  0  0
    2.3540   -9.3530  -24.9480 N   0  0  0  0  0  0  0  0  0  0  0  0
    2.8570   -8.3130  -25.6120 C   0  0  0  0  0  3  0  0  0  0  0  0
    3.4080   -8.3500  -26.8260 N   0  0  0  0  0  0  0  0  0  0  0  0
    3.4850   -9.5420  -27.4420 C   0  0  0  0  0  0  0  0  0  0  0  0
    2.3360  -12.5140  -24.9680 H   0  0  0  0  0  0  0  0  0  0  0  0
    4.9660   -7.4550  -28.5830 N   0  0  0  0  0  0  0  0  0  0  0  0
    4.6140   -8.4930  -29.4000 C   0  0  0  0  0  0  0  0  0  0  0  0
    4.7200   -8.4220  -30.6170 O   0  0  0  0  0  0  0  0  0  0  0  0
    5.3640   -6.6330  -29.0210 H   0  0  0  0  0  0  0  0  0  0  0  0
    4.9170   -7.4970  -27.5760 H   0  0  0  0  0  0  0  0  0  0  0  0
  1 22  1  0  0  0  0
  1  6  1  0  0  0  0
  2  1  2  0  0  0  0
  3  2  1  0  0  0  0
  3  4  2  0  0  0  0
  4  5  1  0  0  0  0
  5  6  2  0  0  0  0
  5  7  1  0  0  0  0
  7 10  1  0  0  0  0
  8  7  1  0  0  0  0
  8  9  2  0  0  0  0
 11  8  1  0  0  0  0
 12 11  1  0  0  0  0
 13 12  2  0  0  0  0
 14 15  2  0  0  0  0
 14 13  1  0  0  0  0
 15 16  1  0  0  0  0
 16 11  2  0  0  0  0
 17 15  1  0  0  0  0
 18 19  1  0  0  0  0
 18 21  1  0  0  0  0
 18 17  1  0  0  0  0
 20 18  1  0  0  0  0
 21 14  1  0  0  0  0
 23 33  1  0  0  0  0
 24 25  1  0  0  0  0
 24 23  2  0  0  0  0
 25 26  2  0  0  0  0
 26 27  1  0  0  0  0
 27 28  1  0  0  0  0
 28 30  2  0  0  0  0
 28 29  1  0  0  0  0
 29 22  1  0  0  0  0
 31 30  1  0  0  0  0
 32 31  2  0  0  0  0
 33 27  2  0  0  0  0
 33 32  1  0  0  0  0
 34 29  1  0  0  0  0
 35 39  1  0  0  0  0
 36 23  1  0  0  0  0
 36 35  1  0  0  0  0
 37 36  2  0  0  0  0
 38 35  1  0  0  0  0
M  END
>  <minimizedAffinity>
-6.92985058

$$$$
