REMARK  Name = 
REMARK  5 active torsions:
REMARK  status: ('A' for Active; 'I' for Inactive)
REMARK    1  A    between atoms: C_2  and  C_4
REMARK    2  A    between atoms: N_10  and  C_11
REMARK    3  A    between atoms: C_11  and  C_12
REMARK    4  A    between atoms: C_16  and  N_17
REMARK    5  A    between atoms: C_18  and  C_20
REMARK                            x       y       z     vdW  Elec       q    Type
REMARK                         _______ _______ _______ _____ _____    ______ ____
ROOT
ATOM      1  C   UNL     1       2.245  -8.775  -2.065  0.00  0.00    -0.029 A 
ATOM      2  C   UNL     1       2.338 -10.160  -1.910  0.00  0.00    +0.005 A 
ATOM      3  C   UNL     1       3.509 -10.822  -2.270  0.00  0.00    +0.002 A 
ATOM      4  C   UNL     1       4.584 -10.109  -2.808  0.00  0.00    +0.023 A 
ATOM      5  C   UNL     1       4.493  -8.732  -3.025  0.00  0.00    +0.034 A 
ATOM      6  C   UNL     1       3.332  -8.071  -2.620  0.00  0.00    +0.028 A 
ENDROOT
BRANCH   5   7
ATOM      7  N   UNL     1       5.511  -7.947  -3.604  0.00  0.00    -0.281 N 
ATOM      8  C   UNL     1       6.580  -8.297  -4.400  0.00  0.00    +0.248 C 
ATOM      9  O   UNL     1       7.504  -7.514  -4.603  0.00  0.00    -0.270 OA
ATOM     10  H   UNL     1       5.475  -6.950  -3.425  0.00  0.00    +0.155 HD
BRANCH   8  11
ATOM     11  C   UNL     1       6.584  -9.598  -5.094  0.00  0.00    +0.041 A 
ATOM     12  C   UNL     1       7.664 -10.479  -4.880  0.00  0.00    +0.017 A 
ATOM     13  C   UNL     1       7.612 -11.781  -5.386  0.00  0.00    +0.050 A 
ATOM     14  C   UNL     1       6.484 -12.148  -6.093  0.00  0.00    +0.173 A 
ATOM     15  C   UNL     1       5.460 -11.261  -6.349  0.00  0.00    +0.173 A 
ATOM     16  C   UNL     1       5.488  -9.967  -5.885  0.00  0.00    +0.062 A 
ATOM     17  O   UNL     1       4.438 -11.830  -7.044  0.00  0.00    -0.395 OA
ATOM     18  C   UNL     1       4.885 -13.192  -7.061  0.00  0.00    +0.589 C 
ATOM     19  F   UNL     1       4.047 -13.924  -6.285  0.00  0.00    -0.125 F 
ATOM     20  F   UNL     1       4.794 -13.666  -8.326  0.00  0.00    -0.125 F 
ATOM     21  O   UNL     1       6.226 -13.388  -6.588  0.00  0.00    -0.395 OA
ENDBRANCH   8  11
ENDBRANCH   5   7
BRANCH   1  22
ATOM     22  C   UNL     1       0.984  -8.029  -1.695  0.00  0.00    +0.138 C 
BRANCH  22  29
ATOM     23  C   UNL     1       0.951  -2.349   0.510  0.00  0.00    +0.063 A 
ATOM     24  C   UNL     1       2.084  -2.411   1.339  0.00  0.00    +0.015 A 
ATOM     25  C   UNL     1       2.776  -3.603   1.464  0.00  0.00    +0.002 A 
ATOM     26  C   UNL     1       2.326  -4.720   0.767  0.00  0.00    +0.013 A 
ATOM     27  C   UNL     1       1.172  -4.664  -0.063  0.00  0.00    +0.041 A 
ATOM     28  C   UNL     1       0.673  -5.760  -0.797  0.00  0.00    +0.130 A 
ATOM     29  N   UNL     1       1.333  -6.981  -0.759  0.00  0.00    -0.324 N 
ATOM     30  N   UNL     1      -0.387  -5.650  -1.612  0.00  0.00    -0.220 NA
ATOM     31  C   UNL     1      -0.969  -4.453  -1.683  0.00  0.00    +0.223 A 
ATOM     32  N   UNL     1      -0.586  -3.356  -1.030  0.00  0.00    -0.235 NA
ATOM     33  C   UNL     1       0.473  -3.454  -0.208  0.00  0.00    +0.088 A 
ATOM     34  H   UNL     1       1.667  -7.291   0.142  0.00  0.00    +0.148 HD
BRANCH  23  36
ATOM     35  N   UNL     1       0.994  -0.003  -0.032  0.00  0.00    -0.325 N 
ATOM     36  C   UNL     1       0.247  -1.054   0.422  0.00  0.00    +0.244 C 
ATOM     37  O   UNL     1      -0.914  -0.912   0.783  0.00  0.00    -0.270 OA
ATOM     38  H   UNL     1       0.536   0.897  -0.103  0.00  0.00    +0.145 HD
ATOM     39  H   UNL     1       1.943  -0.096  -0.364  0.00  0.00    +0.145 HD
ENDBRANCH  23  36
ENDBRANCH  22  29
ENDBRANCH   1  22
TORSDOF 5
