
 OpenBabel10152418103D

 30 33  0  0  0  0  0  0  0  0999 V2000
    2.2940   -7.5240  -27.7540 C   0  0  0  0  0  0  0  0  0  0  0  0
    1.4810   -7.9550  -26.7660 N   0  0  0  0  0  0  0  0  0  0  0  0
    1.9840   -8.8390  -25.8960 C   0  0  0  0  0  0  0  0  0  0  0  0
    1.2580   -9.2470  -24.7820 N   0  0  0  0  0  0  0  0  0  0  0  0
    3.2370   -9.3180  -25.9770 N   0  0  0  0  0  0  0  0  0  0  0  0
    4.0160   -8.8570  -26.9820 C   0  0  0  0  0  3  0  0  0  0  0  0
    3.6010   -7.9310  -27.9070 C   0  0  0  0  0  0  0  0  0  0  0  0
    4.6610   -7.3500  -29.1190 Cl  0  0  0  0  0  0  0  0  0  0  0  0
    1.8410   -9.7870  -24.1610 H   0  0  0  0  0  0  0  0  0  0  0  0
   -0.0530   -8.9820  -24.3770 C   0  0  0  0  0  0  0  0  0  0  0  0
   -0.3980   -7.6740  -24.0060 C   0  0  0  0  0  3  0  0  0  0  0  0
   -1.7200   -7.3330  -23.6860 C   0  0  0  0  0  3  0  0  0  0  0  0
   -2.7290   -8.3000  -23.7200 C   0  0  0  0  0  0  0  0  0  0  0  0
   -2.3860   -9.6120  -24.0620 C   0  0  0  0  0  3  0  0  0  0  0  0
   -1.0690   -9.9410  -24.4050 C   0  0  0  0  0  3  0  0  0  0  0  0
   -4.1170   -7.9750  -23.4210 C   0  0  0  0  0  0  0  0  0  0  0  0
   -4.5780   -7.0580  -22.5930 N   0  0  0  0  0  0  0  0  0  0  0  0
   -5.9480   -7.1520  -22.6280 N   0  0  0  0  0  0  0  0  0  0  0  0
   -6.3370   -8.1220  -23.4410 N   0  0  0  0  0  0  0  0  0  0  0  0
   -5.2020   -8.6400  -23.9260 N   0  0  0  0  0  0  0  0  0  0  0  0
   -5.2400   -9.4360  -24.5470 H   0  0  0  0  0  0  0  0  0  0  0  0
    1.7790   -6.5190  -28.5400 O   0  0  0  0  0  0  0  0  0  0  0  0
   -0.3620   -3.3260  -26.8920 C   0  0  0  0  0  0  0  0  0  0  0  0
    0.7040   -3.1350  -27.7720 C   0  0  0  0  0  3  0  0  0  0  0  0
    1.3990   -4.2300  -28.2910 C   0  0  0  0  0  3  0  0  0  0  0  0
    1.0390   -5.5300  -27.9330 C   0  0  0  0  0  0  0  0  0  0  0  0
   -0.0090   -5.7250  -27.0300 C   0  0  0  0  0  3  0  0  0  0  0  0
   -0.7100   -4.6240  -26.5160 C   0  0  0  0  0  3  0  0  0  0  0  0
   -1.4780   -2.1650  -25.1450 C   0  0  0  0  0  1  0  0  0  0  0  0
   -0.9670   -2.1750  -26.4720 O   0  0  0  0  0  0  0  0  0  0  0  0
  1  2  2  0  0  0  0
  2  3  1  0  0  0  0
  3  4  1  0  0  0  0
  4 10  1  0  0  0  0
  4  9  1  0  0  0  0
  5  3  2  0  0  0  0
  6  5  1  0  0  0  0
  7  1  1  0  0  0  0
  7  6  2  0  0  0  0
  8  7  1  0  0  0  0
 10 11  1  0  0  0  0
 11 12  2  0  0  0  0
 13 12  1  0  0  0  0
 13 16  1  0  0  0  0
 14 13  2  0  0  0  0
 15 10  2  0  0  0  0
 15 14  1  0  0  0  0
 16 17  2  0  0  0  0
 18 17  1  0  0  0  0
 19 18  2  0  0  0  0
 20 19  1  0  0  0  0
 20 16  1  0  0  0  0
 21 20  1  0  0  0  0
 22 26  1  0  0  0  0
 22  1  1  0  0  0  0
 23 28  1  0  0  0  0
 23 30  1  0  0  0  0
 24 23  2  0  0  0  0
 25 26  2  0  0  0  0
 25 24  1  0  0  0  0
 26 27  1  0  0  0  0
 27 28  2  0  0  0  0
 30 29  1  0  0  0  0
M  END
>  <minimizedAffinity>
-6.99504185

$$$$
