REMARK  Name = 
REMARK  6 active torsions:
REMARK  status: ('A' for Active; 'I' for Inactive)
REMARK    1  A    between atoms: C_1  and  O_2
REMARK    2  A    between atoms: O_2  and  C_3
REMARK    3  A    between atoms: C_6  and  O_7
REMARK    4  A    between atoms: O_7  and  C_8
REMARK    5  A    between atoms: N_11  and  C_12
REMARK    6  A    between atoms: C_15  and  C_16
REMARK                            x       y       z     vdW  Elec       q    Type
REMARK                         _______ _______ _______ _____ _____    ______ ____
ROOT
ATOM      1  C   UNL     1       3.550  -0.601   6.604  0.00  0.00    +0.243 A 
ATOM      2  N   UNL     1       3.531  -1.883   7.029  0.00  0.00    -0.178 NA
ATOM      3  C   UNL     1       4.684  -2.405   7.463  0.00  0.00    +0.223 A 
ATOM      4  N   UNL     1       4.734  -3.676   8.026  0.00  0.00    -0.284 N 
ATOM      5  N   UNL     1       5.842  -1.721   7.475  0.00  0.00    -0.221 NA
ATOM      6  C   UNL     1       5.812  -0.440   7.042  0.00  0.00    +0.139 A 
ATOM      7  C   UNL     1       4.675   0.192   6.604  0.00  0.00    +0.121 A 
ATOM      8 CL   UNL     1       4.702   1.835   6.124  0.00  0.00    -0.076 Cl
ATOM      9  H   UNL     1       5.641  -3.844   8.435  0.00  0.00    +0.155 HD
ENDROOT
BRANCH   4  10
ATOM     10  C   UNL     1       3.761  -4.669   8.170  0.00  0.00    +0.034 A 
ATOM     11  C   UNL     1       3.836  -5.539   9.267  0.00  0.00    +0.024 A 
ATOM     12  C   UNL     1       2.834  -6.488   9.513  0.00  0.00    +0.018 A 
ATOM     13  C   UNL     1       1.734  -6.596   8.656  0.00  0.00    +0.070 A 
ATOM     14  C   UNL     1       1.668  -5.749   7.545  0.00  0.00    +0.018 A 
ATOM     15  C   UNL     1       2.659  -4.786   7.319  0.00  0.00    +0.024 A 
BRANCH  13  16
ATOM     16  C   UNL     1       0.661  -7.550   8.896  0.00  0.00    +0.373 C 
ATOM     17  N   UNL     1      -0.082  -8.179   8.006  0.00  0.00    +0.105 NA
ATOM     18  N   UNL     1      -0.976  -8.946   8.714  0.00  0.00    +0.113 NA
ATOM     19  N   UNL     1      -0.813  -8.782  10.018  0.00  0.00    +0.060 NA
ATOM     20  N   UNL     1       0.195  -7.909  10.132  0.00  0.00    -0.084 N 
ATOM     21  H   UNL     1       0.480  -7.590  11.047  0.00  0.00    +0.329 HD
ENDBRANCH  13  16
ENDBRANCH   4  10
BRANCH   1  22
ATOM     22  O   UNL     1       2.319  -0.068   6.297  0.00  0.00    -0.437 OA
BRANCH  22  26
ATOM     23  C   UNL     1       0.870   0.075   2.377  0.00  0.00    +0.120 A 
ATOM     24  C   UNL     1       0.170   0.624   3.452  0.00  0.00    +0.049 A 
ATOM     25  C   UNL     1       0.686   0.545   4.747  0.00  0.00    +0.050 A 
ATOM     26  C   UNL     1       1.907  -0.089   4.984  0.00  0.00    +0.131 A 
ATOM     27  C   UNL     1       2.597  -0.665   3.915  0.00  0.00    +0.050 A 
ATOM     28  C   UNL     1       2.080  -0.578   2.614  0.00  0.00    +0.049 A 
BRANCH  23  30
ATOM     29  C   UNL     1       1.011  -0.156   0.016  0.00  0.00    +0.277 C 
ATOM     30  O   UNL     1       0.265   0.236   1.161  0.00  0.00    -0.495 OA
ENDBRANCH  23  30
ENDBRANCH  22  26
ENDBRANCH   1  22
TORSDOF 5
