REMARK  Name = 
REMARK  6 active torsions:
REMARK  status: ('A' for Active; 'I' for Inactive)
REMARK    1  A    between atoms: C_3  and  C_5
REMARK    2  A    between atoms: C_5  and  C_6
REMARK    3  A    between atoms: C_6  and  C_7
REMARK    4  A    between atoms: C_11  and  N_12
REMARK    5  A    between atoms: C_21  and  O_22
REMARK    6  A    between atoms: O_22  and  C_23
REMARK                            x       y       z     vdW  Elec       q    Type
REMARK                         _______ _______ _______ _____ _____    ______ ____
ROOT
ATOM      1 CL   UNL     1       1.094  -0.031   0.017  0.00  0.00    -0.145 Cl
ATOM      2  H   UNL     1       2.424  -0.031   0.017  0.00  0.00    +0.145 HD
ENDROOT
TORSDOF 0
REMARK  Name = 
REMARK  6 active torsions:
REMARK  status: ('A' for Active; 'I' for Inactive)
REMARK    1  A    between atoms: C_3  and  C_5
REMARK    2  A    between atoms: C_5  and  C_6
REMARK    3  A    between atoms: C_6  and  C_7
REMARK    4  A    between atoms: C_11  and  N_12
REMARK    5  A    between atoms: C_21  and  O_22
REMARK    6  A    between atoms: O_22  and  C_23
REMARK                            x       y       z     vdW  Elec       q    Type
REMARK                         _______ _______ _______ _____ _____    ______ ____
ROOT
ATOM      1  C   UNL     1       3.053   0.958  -0.876  0.00  0.00    +0.016 C 
ATOM      2  C   UNL     1       2.740   2.410  -0.494  0.00  0.00    +0.017 C 
ATOM      3  C   UNL     1       3.479   3.400  -1.387  0.00  0.00    +0.045 C 
ATOM      4  C   UNL     1       4.979   3.157  -1.357  0.00  0.00    +0.174 C 
ATOM      5  C   UNL     1       5.283   1.718  -1.752  0.00  0.00    +0.045 C 
ATOM      6  C   UNL     1       4.561   0.727  -0.851  0.00  0.00    +0.017 C 
ENDROOT
BRANCH   1   8
ATOM      7  O   UNL     1       3.163   1.236  -3.264  0.00  0.00    -0.549 OA
ATOM      8  C   UNL     1       2.602   0.640  -2.292  0.00  0.00    +0.048 C 
ATOM      9  O   UNL     1       1.591  -0.326  -2.540  0.00  0.00    -0.549 OA
ENDBRANCH   1   8
BRANCH   1  10
ATOM     10  C   UNL     1       2.293   0.054   0.081  0.00  0.00    +0.068 C 
BRANCH  10  11
ATOM     11  C   UNL     1       0.813   0.363  -0.082  0.00  0.00    +0.044 A 
ATOM     12  C   UNL     1       0.154   0.068  -1.260  0.00  0.00    +0.023 A 
ATOM     13  C   UNL     1      -1.184   0.441  -1.409  0.00  0.00    +0.005 A 
ATOM     14  C   UNL     1      -1.798   1.082  -0.341  0.00  0.00    +0.044 A 
ATOM     15  C   UNL     1      -1.074   1.315   0.806  0.00  0.00    +0.125 A 
ATOM     16  N   UNL     1       0.213   0.980   0.947  0.00  0.00    -0.237 NA
BRANCH  15  17
ATOM     17  N   UNL     1      -1.751   1.967   1.936  0.00  0.00    -0.279 N 
ATOM     18  C   UNL     1      -1.014   2.234   3.180  0.00  0.00    +0.163 A 
ATOM     19  N   UNL     1       0.050   2.974   3.299  0.00  0.00    -0.233 NA
ATOM     20  C   UNL     1       0.399   3.191   4.622  0.00  0.00    +0.120 A 
ATOM     21  C   UNL     1      -0.428   2.563   5.517  0.00  0.00    +0.068 A 
ATOM     22  S   UNL     1      -1.689   1.696   4.679  0.00  0.00    -0.061 S 
ATOM     23  H   UNL     1      -2.732   2.234   1.858  0.00  0.00    +0.155 HD
ENDBRANCH  15  17
ENDBRANCH  10  11
ENDBRANCH   1  10
BRANCH   4  24
ATOM     24  O   UNL     1       5.462   3.391  -0.042  0.00  0.00    -0.486 OA
BRANCH  24  25
ATOM     25  C   UNL     1       4.966   2.622   1.044  0.00  0.00    +0.159 A 
ATOM     26  C   UNL     1       5.074   1.238   1.130  0.00  0.00    +0.049 A 
ATOM     27  C   UNL     1       4.397   0.522   2.092  0.00  0.00    +0.007 A 
ATOM     28  C   UNL     1       3.587   1.142   3.029  0.00  0.00    +0.041 A 
ATOM     29  C   UNL     1       3.512   2.522   2.965  0.00  0.00    +0.162 A 
ATOM     30  F   UNL     1       2.777   3.204   3.849  0.00  0.00    -0.202 F 
ATOM     31  C   UNL     1       4.191   3.227   1.982  0.00  0.00    +0.200 A 
ATOM     32  F   UNL     1       4.076   4.578   2.003  0.00  0.00    -0.199 F 
ENDBRANCH  24  25
ENDBRANCH   4  24
TORSDOF 6
