
 OpenBabel10152419593D

 32 35  0  0  0  0  0  0  0  0999 V2000
   -0.5850  -10.1570  -24.1750 C   0  0  0  0  0  0  0  0  0  0  0  0
   -1.1960  -11.3780  -24.4890 C   0  0  0  0  0  3  0  0  0  0  0  0
   -0.5760  -12.2400  -25.3770 C   0  0  0  0  0  3  0  0  0  0  0  0
    0.6500  -11.8750  -25.9280 C   0  0  0  0  0  3  0  0  0  0  0  0
    1.2780  -10.6410  -25.5980 C   0  0  0  0  0  0  0  0  0  0  0  0
    2.5300  -10.2280  -26.1010 C   0  0  0  0  0  0  0  0  0  0  0  0
    3.2570  -11.0640  -26.9400 N   0  0  0  0  0  0  0  0  0  0  0  0
    3.0490   -9.0260  -25.8060 N   0  0  0  0  0  0  0  0  0  0  0  0
    2.3590   -8.2590  -24.9620 C   0  0  0  0  0  3  0  0  0  0  0  0
    1.1990   -8.5750  -24.3820 N   0  0  0  0  0  0  0  0  0  0  0  0
    0.6430   -9.7530  -24.7130 C   0  0  0  0  0  0  0  0  0  0  0  0
    3.2180  -12.0510  -26.7260 H   0  0  0  0  0  0  0  0  0  0  0  0
   -0.8610   -9.3260  -21.9400 N   0  0  0  0  0  0  0  0  0  0  0  0
   -1.3000   -9.2770  -23.2350 C   0  0  0  0  0  0  0  0  0  0  0  0
   -2.2630   -8.6100  -23.5790 O   0  0  0  0  0  0  0  0  0  0  0  0
   -1.3300   -8.7390  -21.2630 H   0  0  0  0  0  0  0  0  0  0  0  0
   -0.0590   -9.8650  -21.6460 H   0  0  0  0  0  0  0  0  0  0  0  0
    4.4880  -10.6060  -27.5560 C   0  0  0  0  0  2  0  0  0  0  0  0
    4.1360   -9.6980  -28.7130 C   0  0  0  0  0  0  0  0  0  0  0  0
    4.3140  -10.1000  -30.0390 C   0  0  0  0  0  3  0  0  0  0  0  0
    4.0150   -9.2190  -31.0770 C   0  0  0  0  0  3  0  0  0  0  0  0
    3.5470   -7.9300  -30.7990 C   0  0  0  0  0  3  0  0  0  0  0  0
    3.3730   -7.4940  -29.4830 C   0  0  0  0  0  0  0  0  0  0  0  0
    3.6680   -8.3980  -28.4510 C   0  0  0  0  0  3  0  0  0  0  0  0
    2.8880   -6.2290  -29.1330 N   0  0  0  0  0  0  0  0  0  0  0  0
    1.8030   -5.7490  -28.4090 C   0  0  0  0  0  0  0  0  0  0  0  0
    1.0750   -6.5130  -27.5030 C   0  0  0  0  0  3  0  0  0  0  0  0
    0.0120   -5.9330  -26.8100 C   0  0  0  0  0  3  0  0  0  0  0  0
   -0.2950   -4.6000  -27.0320 C   0  0  0  0  0  3  0  0  0  0  0  0
    0.4850   -3.9010  -27.9320 C   0  0  0  0  0  3  0  0  0  0  0  0
    1.5200   -4.4440  -28.6120 N   0  0  0  0  0  0  0  0  0  0  0  0
    3.3320   -5.4490  -29.6070 H   0  0  0  0  0  0  0  0  0  0  0  0
  1 14  1  0  0  0  0
  2  1  1  0  0  0  0
  3  2  2  0  0  0  0
  4  5  2  0  0  0  0
  4  3  1  0  0  0  0
  5 11  1  0  0  0  0
  6  8  2  0  0  0  0
  6  5  1  0  0  0  0
  7 12  1  0  0  0  0
  7  6  1  0  0  0  0
  8  9  1  0  0  0  0
  9 10  2  0  0  0  0
 11 10  1  0  0  0  0
 11  1  2  0  0  0  0
 13 17  1  0  0  0  0
 13 16  1  0  0  0  0
 14 13  1  0  0  0  0
 15 14  2  0  0  0  0
 18  7  1  0  0  0  0
 19 24  1  0  0  0  0
 19 18  1  0  0  0  0
 20 19  2  0  0  0  0
 21 22  2  0  0  0  0
 21 20  1  0  0  0  0
 22 23  1  0  0  0  0
 23 25  1  0  0  0  0
 23 24  2  0  0  0  0
 25 26  1  0  0  0  0
 26 27  1  0  0  0  0
 27 28  2  0  0  0  0
 29 28  1  0  0  0  0
 30 29  2  0  0  0  0
 31 26  2  0  0  0  0
 31 30  1  0  0  0  0
 32 25  1  0  0  0  0
M  END
>  <minimizedAffinity>
-8.09209347

$$$$
