
 OpenBabel10152419593D

 32 35  0  0  0  0  0  0  0  0999 V2000
   -1.3950  -11.8110  -21.2020 C   0  0  0  0  0  0  0  0  0  0  0  0
   -0.5430  -12.6080  -21.9800 C   0  0  0  0  0  3  0  0  0  0  0  0
    0.0660  -12.0610  -23.0970 C   0  0  0  0  0  3  0  0  0  0  0  0
   -0.1760  -10.7270  -23.4140 C   0  0  0  0  0  3  0  0  0  0  0  0
   -1.0290   -9.9150  -22.6170 C   0  0  0  0  0  0  0  0  0  0  0  0
   -1.2910   -8.5520  -22.8700 C   0  0  0  0  0  0  0  0  0  0  0  0
   -0.6640   -7.9030  -23.9270 N   0  0  0  0  0  0  0  0  0  0  0  0
   -2.1540   -7.8460  -22.1220 N   0  0  0  0  0  0  0  0  0  0  0  0
   -2.7090   -8.4730  -21.0850 C   0  0  0  0  0  3  0  0  0  0  0  0
   -2.4860   -9.7370  -20.7200 N   0  0  0  0  0  0  0  0  0  0  0  0
   -1.6660  -10.4690  -21.4930 C   0  0  0  0  0  0  0  0  0  0  0  0
    0.2970   -8.1650  -24.1020 H   0  0  0  0  0  0  0  0  0  0  0  0
   -3.3200  -12.8470  -20.2140 N   0  0  0  0  0  0  0  0  0  0  0  0
   -2.0230  -12.4520  -20.0350 C   0  0  0  0  0  0  0  0  0  0  0  0
   -1.4450  -12.5530  -18.9640 O   0  0  0  0  0  0  0  0  0  0  0  0
   -3.7880  -13.2880  -19.4330 H   0  0  0  0  0  0  0  0  0  0  0  0
   -3.8040  -12.7790  -21.0970 H   0  0  0  0  0  0  0  0  0  0  0  0
   -1.0110   -6.5360  -24.2700 C   0  0  0  0  0  2  0  0  0  0  0  0
   -0.2030   -6.1270  -25.4800 C   0  0  0  0  0  0  0  0  0  0  0  0
   -0.4730   -4.9440  -26.1740 C   0  0  0  0  0  3  0  0  0  0  0  0
    0.2680   -4.6220  -27.3090 C   0  0  0  0  0  3  0  0  0  0  0  0
    1.2750   -5.4800  -27.7650 C   0  0  0  0  0  3  0  0  0  0  0  0
    1.5580   -6.6760  -27.1020 C   0  0  0  0  0  0  0  0  0  0  0  0
    0.8100   -6.9790  -25.9540 C   0  0  0  0  0  3  0  0  0  0  0  0
    2.5650   -7.5680  -27.4870 N   0  0  0  0  0  0  0  0  0  0  0  0
    3.0010   -8.8160  -27.0580 C   0  0  0  0  0  0  0  0  0  0  0  0
    2.2370   -9.6810  -26.2840 C   0  0  0  0  0  3  0  0  0  0  0  0
    2.7590  -10.9230  -25.9190 C   0  0  0  0  0  3  0  0  0  0  0  0
    4.0310  -11.2750  -26.3430 C   0  0  0  0  0  3  0  0  0  0  0  0
    4.7220  -10.3710  -27.1250 C   0  0  0  0  0  3  0  0  0  0  0  0
    4.2330   -9.1650  -27.4910 N   0  0  0  0  0  0  0  0  0  0  0  0
    3.2390   -7.1990  -28.1500 H   0  0  0  0  0  0  0  0  0  0  0  0
  1 14  1  0  0  0  0
  2  1  2  0  0  0  0
  3  2  1  0  0  0  0
  4  3  2  0  0  0  0
  4  5  1  0  0  0  0
  5 11  1  0  0  0  0
  6  5  2  0  0  0  0
  6  8  1  0  0  0  0
  7  6  1  0  0  0  0
  8  9  2  0  0  0  0
  9 10  1  0  0  0  0
 11  1  1  0  0  0  0
 11 10  2  0  0  0  0
 12  7  1  0  0  0  0
 13 14  1  0  0  0  0
 13 16  1  0  0  0  0
 14 15  2  0  0  0  0
 17 13  1  0  0  0  0
 18  7  1  0  0  0  0
 19 18  1  0  0  0  0
 20 19  2  0  0  0  0
 21 20  1  0  0  0  0
 22 21  2  0  0  0  0
 22 23  1  0  0  0  0
 23 24  2  0  0  0  0
 24 19  1  0  0  0  0
 25 23  1  0  0  0  0
 25 26  1  0  0  0  0
 26 27  1  0  0  0  0
 27 28  2  0  0  0  0
 29 28  1  0  0  0  0
 30 29  2  0  0  0  0
 31 30  1  0  0  0  0
 31 26  2  0  0  0  0
 32 25  1  0  0  0  0
M  END
>  <minimizedAffinity>
-10.6893482

$$$$

 OpenBabel10152419593D

 32 35  0  0  0  0  0  0  0  0999 V2000
   -1.2070  -10.7670  -22.2460 C   0  0  0  0  0  0  0  0  0  0  0  0
   -1.8160   -9.5270  -22.4900 C   0  0  0  0  0  3  0  0  0  0  0  0
   -1.2870   -8.6900  -23.4570 C   0  0  0  0  0  3  0  0  0  0  0  0
   -0.1680   -9.1060  -24.1730 C   0  0  0  0  0  3  0  0  0  0  0  0
    0.4410  -10.3700  -23.9350 C   0  0  0  0  0  0  0  0  0  0  0  0
    1.5580  -10.8590  -24.6450 C   0  0  0  0  0  0  0  0  0  0  0  0
    2.1070  -10.1160  -25.6840 N   0  0  0  0  0  0  0  0  0  0  0  0
    2.1330  -12.0330  -24.3400 N   0  0  0  0  0  0  0  0  0  0  0  0
    1.5630  -12.7520  -23.3730 C   0  0  0  0  0  3  0  0  0  0  0  0
    0.4730  -12.4140  -22.6810 N   0  0  0  0  0  0  0  0  0  0  0  0
   -0.0780  -11.2160  -22.9410 C   0  0  0  0  0  0  0  0  0  0  0  0
    1.4510   -9.6150  -26.2670 H   0  0  0  0  0  0  0  0  0  0  0  0
   -2.1580  -12.8700  -21.5880 N   0  0  0  0  0  0  0  0  0  0  0  0
   -1.8070  -11.6070  -21.1960 C   0  0  0  0  0  0  0  0  0  0  0  0
   -2.0400  -11.1770  -20.0770 O   0  0  0  0  0  0  0  0  0  0  0  0
   -2.5780  -13.4770  -20.8970 H   0  0  0  0  0  0  0  0  0  0  0  0
   -1.9610  -13.2400  -22.5070 H   0  0  0  0  0  0  0  0  0  0  0  0
    3.3240  -10.5510  -26.3450 C   0  0  0  0  0  2  0  0  0  0  0  0
    3.6160   -9.6000  -27.4830 C   0  0  0  0  0  0  0  0  0  0  0  0
    4.4430   -9.9660  -28.5480 C   0  0  0  0  0  3  0  0  0  0  0  0
    4.7210   -9.0460  -29.5570 C   0  0  0  0  0  3  0  0  0  0  0  0
    4.1850   -7.7550  -29.5070 C   0  0  0  0  0  3  0  0  0  0  0  0
    3.3670   -7.3550  -28.4480 C   0  0  0  0  0  0  0  0  0  0  0  0
    3.0880   -8.2970  -27.4460 C   0  0  0  0  0  3  0  0  0  0  0  0
    2.7790   -6.0890  -28.3450 N   0  0  0  0  0  0  0  0  0  0  0  0
    1.6180   -5.5790  -27.7750 C   0  0  0  0  0  0  0  0  0  0  0  0
    0.8800   -6.2350  -26.7970 C   0  0  0  0  0  3  0  0  0  0  0  0
   -0.2630   -5.6300  -26.2750 C   0  0  0  0  0  3  0  0  0  0  0  0
   -0.6390   -4.3770  -26.7360 C   0  0  0  0  0  3  0  0  0  0  0  0
    0.1550   -3.7800  -27.6950 C   0  0  0  0  0  3  0  0  0  0  0  0
    1.2670   -4.3490  -28.2120 N   0  0  0  0  0  0  0  0  0  0  0  0
    3.2040   -5.3670  -28.9170 H   0  0  0  0  0  0  0  0  0  0  0  0
  1 14  1  0  0  0  0
  2  1  1  0  0  0  0
  3  2  2  0  0  0  0
  4  5  2  0  0  0  0
  4  3  1  0  0  0  0
  5 11  1  0  0  0  0
  6  8  2  0  0  0  0
  6  5  1  0  0  0  0
  7  6  1  0  0  0  0
  8  9  1  0  0  0  0
  9 10  2  0  0  0  0
 11 10  1  0  0  0  0
 11  1  2  0  0  0  0
 12  7  1  0  0  0  0
 13 14  1  0  0  0  0
 13 16  1  0  0  0  0
 14 15  2  0  0  0  0
 17 13  1  0  0  0  0
 18  7  1  0  0  0  0
 19 24  1  0  0  0  0
 19 18  1  0  0  0  0
 20 19  2  0  0  0  0
 21 22  2  0  0  0  0
 21 20  1  0  0  0  0
 22 23  1  0  0  0  0
 23 25  1  0  0  0  0
 23 24  2  0  0  0  0
 25 26  1  0  0  0  0
 26 27  1  0  0  0  0
 27 28  2  0  0  0  0
 29 28  1  0  0  0  0
 30 29  2  0  0  0  0
 31 26  2  0  0  0  0
 31 30  1  0  0  0  0
 32 25  1  0  0  0  0
M  END
>  <minimizedAffinity>
-9.38739586

$$$$

 OpenBabel10152419593D

 32 35  0  0  0  0  0  0  0  0999 V2000
   -2.0310   -9.3340  -21.8660 C   0  0  0  0  0  0  0  0  0  0  0  0
   -1.8030  -10.1510  -20.7500 C   0  0  0  0  0  3  0  0  0  0  0  0
   -1.0580  -11.3100  -20.8970 C   0  0  0  0  0  3  0  0  0  0  0  0
   -0.5450  -11.6290  -22.1510 C   0  0  0  0  0  3  0  0  0  0  0  0
   -0.7650  -10.7920  -23.2810 C   0  0  0  0  0  0  0  0  0  0  0  0
   -0.2490  -11.0460  -24.5690 C   0  0  0  0  0  0  0  0  0  0  0  0
    0.5700  -12.1470  -24.7900 N   0  0  0  0  0  0  0  0  0  0  0  0
   -0.5380  -10.2580  -25.6170 N   0  0  0  0  0  0  0  0  0  0  0  0
   -1.2860   -9.1800  -25.3740 C   0  0  0  0  0  3  0  0  0  0  0  0
   -1.7730   -8.8140  -24.1870 N   0  0  0  0  0  0  0  0  0  0  0  0
   -1.5370   -9.6260  -23.1430 C   0  0  0  0  0  0  0  0  0  0  0  0
    1.2170  -12.3760  -24.0480 H   0  0  0  0  0  0  0  0  0  0  0  0
   -2.2120   -6.9420  -21.9350 N   0  0  0  0  0  0  0  0  0  0  0  0
   -2.8400   -8.1230  -21.6500 C   0  0  0  0  0  0  0  0  0  0  0  0
   -3.9660   -8.1740  -21.1790 O   0  0  0  0  0  0  0  0  0  0  0  0
   -2.7330   -6.0870  -21.7950 H   0  0  0  0  0  0  0  0  0  0  0  0
   -1.2850   -6.8890  -22.3340 H   0  0  0  0  0  0  0  0  0  0  0  0
    1.0120  -12.4860  -26.1300 C   0  0  0  0  0  2  0  0  0  0  0  0
    2.3100  -11.7610  -26.4030 C   0  0  0  0  0  0  0  0  0  0  0  0
    3.5480  -12.3570  -26.1480 C   0  0  0  0  0  3  0  0  0  0  0  0
    4.7220  -11.6410  -26.3750 C   0  0  0  0  0  3  0  0  0  0  0  0
    4.6690  -10.3250  -26.8480 C   0  0  0  0  0  3  0  0  0  0  0  0
    3.4470   -9.6970  -27.0970 C   0  0  0  0  0  0  0  0  0  0  0  0
    2.2750  -10.4360  -26.8740 C   0  0  0  0  0  3  0  0  0  0  0  0
    3.3200   -8.3940  -27.5910 N   0  0  0  0  0  0  0  0  0  0  0  0
    2.3960   -7.3650  -27.4490 C   0  0  0  0  0  0  0  0  0  0  0  0
    1.4720   -7.2900  -26.4130 C   0  0  0  0  0  3  0  0  0  0  0  0
    0.5970   -6.2050  -26.3490 C   0  0  0  0  0  3  0  0  0  0  0  0
    0.6700   -5.2150  -27.3170 C   0  0  0  0  0  3  0  0  0  0  0  0
    1.6260   -5.3510  -28.3040 C   0  0  0  0  0  3  0  0  0  0  0  0
    2.4840   -6.3930  -28.3830 N   0  0  0  0  0  0  0  0  0  0  0  0
    3.9680   -8.1480  -28.3320 H   0  0  0  0  0  0  0  0  0  0  0  0
  1 14  1  0  0  0  0
  1  2  1  0  0  0  0
  3  2  2  0  0  0  0
  4  3  1  0  0  0  0
  5 11  1  0  0  0  0
  5  4  2  0  0  0  0
  6  5  1  0  0  0  0
  7  6  1  0  0  0  0
  7 12  1  0  0  0  0
  8  9  1  0  0  0  0
  8  6  2  0  0  0  0
  9 10  2  0  0  0  0
 10 11  1  0  0  0  0
 11  1  2  0  0  0  0
 13 16  1  0  0  0  0
 13 14  1  0  0  0  0
 14 15  2  0  0  0  0
 17 13  1  0  0  0  0
 18  7  1  0  0  0  0
 19 20  1  0  0  0  0
 19 18  1  0  0  0  0
 21 20  2  0  0  0  0
 22 21  1  0  0  0  0
 23 24  1  0  0  0  0
 23 22  2  0  0  0  0
 24 19  2  0  0  0  0
 25 26  1  0  0  0  0
 25 23  1  0  0  0  0
 26 27  1  0  0  0  0
 27 28  2  0  0  0  0
 29 28  1  0  0  0  0
 30 29  2  0  0  0  0
 31 30  1  0  0  0  0
 31 26  2  0  0  0  0
 32 25  1  0  0  0  0
M  END
>  <minimizedAffinity>
-8.71871948

$$$$

 OpenBabel10152419593D

 32 35  0  0  0  0  0  0  0  0999 V2000
   -0.4390   -4.3080  -25.9320 C   0  0  0  0  0  0  0  0  0  0  0  0
   -0.8010   -4.6210  -24.6140 C   0  0  0  0  0  3  0  0  0  0  0  0
   -0.3110   -5.7770  -24.0310 C   0  0  0  0  0  3  0  0  0  0  0  0
    0.5400   -6.5970  -24.7680 C   0  0  0  0  0  3  0  0  0  0  0  0
    0.9180   -6.2730  -26.1010 C   0  0  0  0  0  0  0  0  0  0  0  0
    1.7970   -7.0470  -26.8870 C   0  0  0  0  0  0  0  0  0  0  0  0
    2.3930   -8.1840  -26.3560 N   0  0  0  0  0  0  0  0  0  0  0  0
    2.0730   -6.7300  -28.1620 N   0  0  0  0  0  0  0  0  0  0  0  0
    1.5290   -5.6090  -28.6380 C   0  0  0  0  0  3  0  0  0  0  0  0
    0.7360   -4.7740  -27.9640 N   0  0  0  0  0  0  0  0  0  0  0  0
    0.4080   -5.1110  -26.7050 C   0  0  0  0  0  0  0  0  0  0  0  0
    2.6700   -8.1290  -25.3850 H   0  0  0  0  0  0  0  0  0  0  0  0
   -0.0850   -2.1830  -26.9880 N   0  0  0  0  0  0  0  0  0  0  0  0
   -1.0020   -3.0720  -26.5010 C   0  0  0  0  0  0  0  0  0  0  0  0
   -2.2000   -2.8340  -26.4710 O   0  0  0  0  0  0  0  0  0  0  0  0
   -0.4320   -1.3190  -27.3840 H   0  0  0  0  0  0  0  0  0  0  0  0
    0.9060   -2.3740  -27.0290 H   0  0  0  0  0  0  0  0  0  0  0  0
    3.2060   -9.0530  -27.1870 C   0  0  0  0  0  2  0  0  0  0  0  0
    3.2690  -10.4160  -26.5360 C   0  0  0  0  0  0  0  0  0  0  0  0
    4.2710  -11.3350  -26.8580 C   0  0  0  0  0  3  0  0  0  0  0  0
    4.2710  -12.5960  -26.2670 C   0  0  0  0  0  3  0  0  0  0  0  0
    3.2680  -12.9540  -25.3590 C   0  0  0  0  0  3  0  0  0  0  0  0
    2.2450  -12.0620  -25.0280 C   0  0  0  0  0  0  0  0  0  0  0  0
    2.2660  -10.7920  -25.6250 C   0  0  0  0  0  3  0  0  0  0  0  0
    1.2240  -12.3430  -24.1130 N   0  0  0  0  0  0  0  0  0  0  0  0
    0.2950  -11.5920  -23.4020 C   0  0  0  0  0  0  0  0  0  0  0  0
   -0.0730  -10.2940  -23.7380 C   0  0  0  0  0  3  0  0  0  0  0  0
   -1.0300   -9.6300  -22.9710 C   0  0  0  0  0  3  0  0  0  0  0  0
   -1.6040  -10.2800  -21.8890 C   0  0  0  0  0  3  0  0  0  0  0  0
   -1.2010  -11.5750  -21.6290 C   0  0  0  0  0  3  0  0  0  0  0  0
   -0.2770  -12.2370  -22.3620 N   0  0  0  0  0  0  0  0  0  0  0  0
    1.2100  -13.2950  -23.7600 H   0  0  0  0  0  0  0  0  0  0  0  0
  1  2  1  0  0  0  0
  2  3  2  0  0  0  0
  4  3  1  0  0  0  0
  5  4  2  0  0  0  0
  6  7  1  0  0  0  0
  6  5  1  0  0  0  0
  7 12  1  0  0  0  0
  8  6  2  0  0  0  0
  9  8  1  0  0  0  0
  9 10  2  0  0  0  0
 10 11  1  0  0  0  0
 11  5  1  0  0  0  0
 11  1  2  0  0  0  0
 13 14  1  0  0  0  0
 14 15  2  0  0  0  0
 14  1  1  0  0  0  0
 16 13  1  0  0  0  0
 17 13  1  0  0  0  0
 18 19  1  0  0  0  0
 18  7  1  0  0  0  0
 19 24  1  0  0  0  0
 20 19  2  0  0  0  0
 20 21  1  0  0  0  0
 21 22  2  0  0  0  0
 22 23  1  0  0  0  0
 23 25  1  0  0  0  0
 24 23  2  0  0  0  0
 25 32  1  0  0  0  0
 25 26  1  0  0  0  0
 26 31  1  0  0  0  0
 27 26  2  0  0  0  0
 27 28  1  0  0  0  0
 28 29  2  0  0  0  0
 29 30  1  0  0  0  0
 31 30  2  0  0  0  0
M  END
>  <minimizedAffinity>
-8.61959553

$$$$

 OpenBabel10152419593D

 32 35  0  0  0  0  0  0  0  0999 V2000
   -2.5300   -8.3950  -22.0920 C   0  0  0  0  0  0  0  0  0  0  0  0
   -2.8830   -7.5070  -23.1180 C   0  0  0  0  0  3  0  0  0  0  0  0
   -2.4050   -7.7260  -24.3990 C   0  0  0  0  0  3  0  0  0  0  0  0
   -1.5940   -8.8320  -24.6380 C   0  0  0  0  0  3  0  0  0  0  0  0
   -1.2480   -9.7410  -23.5990 C   0  0  0  0  0  0  0  0  0  0  0  0
   -0.4550  -10.8930  -23.7840 C   0  0  0  0  0  0  0  0  0  0  0  0
    0.0040  -11.2300  -25.0520 N   0  0  0  0  0  0  0  0  0  0  0  0
   -0.1060  -11.6850  -22.7580 N   0  0  0  0  0  0  0  0  0  0  0  0
   -0.5960  -11.3720  -21.5580 C   0  0  0  0  0  3  0  0  0  0  0  0
   -1.4020  -10.3440  -21.2830 N   0  0  0  0  0  0  0  0  0  0  0  0
   -1.7130   -9.5130  -22.2930 C   0  0  0  0  0  0  0  0  0  0  0  0
   -0.6340  -11.0580  -25.8160 H   0  0  0  0  0  0  0  0  0  0  0  0
   -4.3740   -7.7340  -20.7050 N   0  0  0  0  0  0  0  0  0  0  0  0
   -3.0580   -8.1020  -20.7480 C   0  0  0  0  0  0  0  0  0  0  0  0
   -2.3450   -8.1160  -19.7560 O   0  0  0  0  0  0  0  0  0  0  0  0
   -4.7730   -7.5210  -19.8010 H   0  0  0  0  0  0  0  0  0  0  0  0
   -4.9760   -7.7290  -21.5170 H   0  0  0  0  0  0  0  0  0  0  0  0
    0.9160  -12.3440  -25.2380 C   0  0  0  0  0  2  0  0  0  0  0  0
    2.2120  -11.8120  -25.8070 C   0  0  0  0  0  0  0  0  0  0  0  0
    3.3880  -12.5660  -25.7770 C   0  0  0  0  0  3  0  0  0  0  0  0
    4.5710  -12.0240  -26.2750 C   0  0  0  0  0  3  0  0  0  0  0  0
    4.5920  -10.7250  -26.7960 C   0  0  0  0  0  3  0  0  0  0  0  0
    3.4360   -9.9420  -26.8260 C   0  0  0  0  0  0  0  0  0  0  0  0
    2.2510  -10.5070  -26.3310 C   0  0  0  0  0  3  0  0  0  0  0  0
    3.3790   -8.6470  -27.3530 N   0  0  0  0  0  0  0  0  0  0  0  0
    2.4760   -7.5910  -27.2930 C   0  0  0  0  0  0  0  0  0  0  0  0
    1.4890   -7.4690  -26.3220 C   0  0  0  0  0  3  0  0  0  0  0  0
    0.6420   -6.3600  -26.3370 C   0  0  0  0  0  3  0  0  0  0  0  0
    0.8060   -5.3930  -27.3180 C   0  0  0  0  0  3  0  0  0  0  0  0
    1.8210   -5.5760  -28.2370 C   0  0  0  0  0  3  0  0  0  0  0  0
    2.6540   -6.6410  -28.2380 N   0  0  0  0  0  0  0  0  0  0  0  0
    4.0810   -8.4340  -28.0530 H   0  0  0  0  0  0  0  0  0  0  0  0
  1 14  1  0  0  0  0
  2  1  2  0  0  0  0
  3  2  1  0  0  0  0
  4  3  2  0  0  0  0
  4  5  1  0  0  0  0
  5 11  1  0  0  0  0
  6  5  2  0  0  0  0
  6  8  1  0  0  0  0
  7  6  1  0  0  0  0
  8  9  2  0  0  0  0
  9 10  1  0  0  0  0
 11  1  1  0  0  0  0
 11 10  2  0  0  0  0
 12  7  1  0  0  0  0
 13 16  1  0  0  0  0
 14 13  1  0  0  0  0
 14 15  2  0  0  0  0
 17 13  1  0  0  0  0
 18  7  1  0  0  0  0
 19 20  1  0  0  0  0
 19 18  1  0  0  0  0
 21 20  2  0  0  0  0
 22 21  1  0  0  0  0
 23 22  2  0  0  0  0
 23 24  1  0  0  0  0
 24 19  2  0  0  0  0
 25 26  1  0  0  0  0
 25 23  1  0  0  0  0
 26 27  1  0  0  0  0
 28 27  2  0  0  0  0
 29 28  1  0  0  0  0
 30 29  2  0  0  0  0
 31 30  1  0  0  0  0
 31 26  2  0  0  0  0
 32 25  1  0  0  0  0
M  END
>  <minimizedAffinity>
-8.47217083

$$$$

 OpenBabel10152419593D

 32 35  0  0  0  0  0  0  0  0999 V2000
   -0.0320   -4.1110  -26.9550 C   0  0  0  0  0  0  0  0  0  0  0  0
    0.6030   -4.1310  -28.2040 C   0  0  0  0  0  3  0  0  0  0  0  0
    1.4520   -5.1790  -28.5180 C   0  0  0  0  0  3  0  0  0  0  0  0
    1.6430   -6.1960  -27.5860 C   0  0  0  0  0  3  0  0  0  0  0  0
    0.9870   -6.1840  -26.3240 C   0  0  0  0  0  0  0  0  0  0  0  0
    1.1180   -7.1970  -25.3510 C   0  0  0  0  0  0  0  0  0  0  0  0
    1.8900   -8.3220  -25.6130 N   0  0  0  0  0  0  0  0  0  0  0  0
    0.5250   -7.1060  -24.1500 N   0  0  0  0  0  0  0  0  0  0  0  0
   -0.2500   -6.0420  -23.9360 C   0  0  0  0  0  3  0  0  0  0  0  0
   -0.4910   -5.0590  -24.8060 N   0  0  0  0  0  0  0  0  0  0  0  0
    0.1410   -5.1120  -25.9910 C   0  0  0  0  0  0  0  0  0  0  0  0
    1.8510   -8.6780  -26.5580 H   0  0  0  0  0  0  0  0  0  0  0  0
   -0.3220   -1.7350  -26.7870 N   0  0  0  0  0  0  0  0  0  0  0  0
   -0.9110   -2.9640  -26.6740 C   0  0  0  0  0  0  0  0  0  0  0  0
   -2.0640   -3.1100  -26.2960 O   0  0  0  0  0  0  0  0  0  0  0  0
   -0.8920   -0.9220  -26.5970 H   0  0  0  0  0  0  0  0  0  0  0  0
    0.6270   -1.6020  -27.1080 H   0  0  0  0  0  0  0  0  0  0  0  0
    2.1280   -9.3140  -24.5800 C   0  0  0  0  0  2  0  0  0  0  0  0
    1.1300  -10.4360  -24.7560 C   0  0  0  0  0  0  0  0  0  0  0  0
    1.1210  -11.2340  -25.9020 C   0  0  0  0  0  3  0  0  0  0  0  0
    0.1590  -12.2320  -26.0450 C   0  0  0  0  0  3  0  0  0  0  0  0
   -0.8050  -12.4340  -25.0510 C   0  0  0  0  0  3  0  0  0  0  0  0
   -0.8310  -11.6420  -23.9000 C   0  0  0  0  0  0  0  0  0  0  0  0
    0.1520  -10.6500  -23.7680 C   0  0  0  0  0  3  0  0  0  0  0  0
   -1.7500  -11.8030  -22.8570 N   0  0  0  0  0  0  0  0  0  0  0  0
   -1.6790  -12.1910  -21.5250 C   0  0  0  0  0  0  0  0  0  0  0  0
   -0.5080  -12.1840  -20.7760 C   0  0  0  0  0  3  0  0  0  0  0  0
   -0.5440  -12.5760  -19.4370 C   0  0  0  0  0  3  0  0  0  0  0  0
   -1.7520  -12.9580  -18.8740 C   0  0  0  0  0  3  0  0  0  0  0  0
   -2.8760  -12.9210  -19.6760 C   0  0  0  0  0  3  0  0  0  0  0  0
   -2.8620  -12.5430  -20.9740 N   0  0  0  0  0  0  0  0  0  0  0  0
   -2.7260  -11.7580  -23.1300 H   0  0  0  0  0  0  0  0  0  0  0  0
  1 14  1  0  0  0  0
  1 11  1  0  0  0  0
  2  1  2  0  0  0  0
  3  2  1  0  0  0  0
  3  4  2  0  0  0  0
  4  5  1  0  0  0  0
  5 11  2  0  0  0  0
  5  6  1  0  0  0  0
  6  8  2  0  0  0  0
  7  6  1  0  0  0  0
  7 18  1  0  0  0  0
  8  9  1  0  0  0  0
 10  9  2  0  0  0  0
 11 10  1  0  0  0  0
 12  7  1  0  0  0  0
 13 14  1  0  0  0  0
 13 16  1  0  0  0  0
 14 15  2  0  0  0  0
 17 13  1  0  0  0  0
 19 18  1  0  0  0  0
 19 24  1  0  0  0  0
 20 19  2  0  0  0  0
 21 20  1  0  0  0  0
 21 22  2  0  0  0  0
 22 23  1  0  0  0  0
 23 24  2  0  0  0  0
 23 25  1  0  0  0  0
 25 26  1  0  0  0  0
 26 31  2  0  0  0  0
 26 27  1  0  0  0  0
 27 28  2  0  0  0  0
 28 29  1  0  0  0  0
 30 29  2  0  0  0  0
 31 30  1  0  0  0  0
 32 25  1  0  0  0  0
M  END
>  <minimizedAffinity>
-8.36044693

$$$$

 OpenBabel10152419593D

 32 35  0  0  0  0  0  0  0  0999 V2000
   -0.5850  -10.1570  -24.1750 C   0  0  0  0  0  0  0  0  0  0  0  0
   -1.1960  -11.3780  -24.4890 C   0  0  0  0  0  3  0  0  0  0  0  0
   -0.5760  -12.2400  -25.3770 C   0  0  0  0  0  3  0  0  0  0  0  0
    0.6500  -11.8750  -25.9280 C   0  0  0  0  0  3  0  0  0  0  0  0
    1.2780  -10.6410  -25.5980 C   0  0  0  0  0  0  0  0  0  0  0  0
    2.5300  -10.2280  -26.1010 C   0  0  0  0  0  0  0  0  0  0  0  0
    3.2570  -11.0640  -26.9400 N   0  0  0  0  0  0  0  0  0  0  0  0
    3.0490   -9.0260  -25.8060 N   0  0  0  0  0  0  0  0  0  0  0  0
    2.3590   -8.2590  -24.9620 C   0  0  0  0  0  3  0  0  0  0  0  0
    1.1990   -8.5750  -24.3820 N   0  0  0  0  0  0  0  0  0  0  0  0
    0.6430   -9.7530  -24.7130 C   0  0  0  0  0  0  0  0  0  0  0  0
    3.2180  -12.0510  -26.7260 H   0  0  0  0  0  0  0  0  0  0  0  0
   -0.8610   -9.3260  -21.9400 N   0  0  0  0  0  0  0  0  0  0  0  0
   -1.3000   -9.2770  -23.2350 C   0  0  0  0  0  0  0  0  0  0  0  0
   -2.2630   -8.6100  -23.5790 O   0  0  0  0  0  0  0  0  0  0  0  0
   -1.3300   -8.7390  -21.2630 H   0  0  0  0  0  0  0  0  0  0  0  0
   -0.0590   -9.8650  -21.6460 H   0  0  0  0  0  0  0  0  0  0  0  0
    4.4880  -10.6060  -27.5560 C   0  0  0  0  0  2  0  0  0  0  0  0
    4.1360   -9.6980  -28.7130 C   0  0  0  0  0  0  0  0  0  0  0  0
    4.3140  -10.1000  -30.0390 C   0  0  0  0  0  3  0  0  0  0  0  0
    4.0150   -9.2190  -31.0770 C   0  0  0  0  0  3  0  0  0  0  0  0
    3.5470   -7.9300  -30.7990 C   0  0  0  0  0  3  0  0  0  0  0  0
    3.3730   -7.4940  -29.4830 C   0  0  0  0  0  0  0  0  0  0  0  0
    3.6680   -8.3980  -28.4510 C   0  0  0  0  0  3  0  0  0  0  0  0
    2.8880   -6.2290  -29.1330 N   0  0  0  0  0  0  0  0  0  0  0  0
    1.8030   -5.7490  -28.4090 C   0  0  0  0  0  0  0  0  0  0  0  0
    1.0750   -6.5130  -27.5030 C   0  0  0  0  0  3  0  0  0  0  0  0
    0.0120   -5.9330  -26.8100 C   0  0  0  0  0  3  0  0  0  0  0  0
   -0.2950   -4.6000  -27.0320 C   0  0  0  0  0  3  0  0  0  0  0  0
    0.4850   -3.9010  -27.9320 C   0  0  0  0  0  3  0  0  0  0  0  0
    1.5200   -4.4440  -28.6120 N   0  0  0  0  0  0  0  0  0  0  0  0
    3.3320   -5.4490  -29.6070 H   0  0  0  0  0  0  0  0  0  0  0  0
  1 14  1  0  0  0  0
  2  1  1  0  0  0  0
  3  2  2  0  0  0  0
  4  5  2  0  0  0  0
  4  3  1  0  0  0  0
  5 11  1  0  0  0  0
  6  8  2  0  0  0  0
  6  5  1  0  0  0  0
  7 12  1  0  0  0  0
  7  6  1  0  0  0  0
  8  9  1  0  0  0  0
  9 10  2  0  0  0  0
 11 10  1  0  0  0  0
 11  1  2  0  0  0  0
 13 17  1  0  0  0  0
 13 16  1  0  0  0  0
 14 13  1  0  0  0  0
 15 14  2  0  0  0  0
 18  7  1  0  0  0  0
 19 24  1  0  0  0  0
 19 18  1  0  0  0  0
 20 19  2  0  0  0  0
 21 22  2  0  0  0  0
 21 20  1  0  0  0  0
 22 23  1  0  0  0  0
 23 25  1  0  0  0  0
 23 24  2  0  0  0  0
 25 26  1  0  0  0  0
 26 27  1  0  0  0  0
 27 28  2  0  0  0  0
 29 28  1  0  0  0  0
 30 29  2  0  0  0  0
 31 26  2  0  0  0  0
 31 30  1  0  0  0  0
 32 25  1  0  0  0  0
M  END
>  <minimizedAffinity>
-8.09209347

$$$$

 OpenBabel10152419593D

 32 35  0  0  0  0  0  0  0  0999 V2000
   -1.7580  -10.1170  -21.8950 C   0  0  0  0  0  0  0  0  0  0  0  0
   -1.7330   -9.1080  -20.9220 C   0  0  0  0  0  3  0  0  0  0  0  0
   -1.6110   -7.7870  -21.3180 C   0  0  0  0  0  3  0  0  0  0  0  0
   -1.5270   -7.4930  -22.6770 C   0  0  0  0  0  3  0  0  0  0  0  0
   -1.5670   -8.5170  -23.6640 C   0  0  0  0  0  0  0  0  0  0  0  0
   -1.5140   -8.2810  -25.0540 C   0  0  0  0  0  0  0  0  0  0  0  0
   -1.4660   -6.9810  -25.5420 N   0  0  0  0  0  0  0  0  0  0  0  0
   -1.4930   -9.2880  -25.9430 N   0  0  0  0  0  0  0  0  0  0  0  0
   -1.5880  -10.5260  -25.4570 C   0  0  0  0  0  3  0  0  0  0  0  0
   -1.7030  -10.8570  -24.1690 N   0  0  0  0  0  0  0  0  0  0  0  0
   -1.6700   -9.8610  -23.2680 C   0  0  0  0  0  0  0  0  0  0  0  0
   -2.0180   -6.2980  -25.0410 H   0  0  0  0  0  0  0  0  0  0  0  0
   -1.0080  -12.3950  -21.9770 N   0  0  0  0  0  0  0  0  0  0  0  0
   -1.8770  -11.5030  -21.4110 C   0  0  0  0  0  0  0  0  0  0  0  0
   -2.7410  -11.8390  -20.6160 O   0  0  0  0  0  0  0  0  0  0  0  0
   -1.0610  -13.3590  -21.6740 H   0  0  0  0  0  0  0  0  0  0  0  0
   -0.2820  -12.1270  -22.6260 H   0  0  0  0  0  0  0  0  0  0  0  0
   -1.2940   -6.7270  -26.9610 C   0  0  0  0  0  2  0  0  0  0  0  0
    0.1720   -6.4690  -27.2270 C   0  0  0  0  0  0  0  0  0  0  0  0
    0.6430   -5.1940  -27.5490 C   0  0  0  0  0  3  0  0  0  0  0  0
    1.9950   -5.0050  -27.8270 C   0  0  0  0  0  3  0  0  0  0  0  0
    2.8840   -6.0860  -27.7950 C   0  0  0  0  0  3  0  0  0  0  0  0
    2.4400   -7.3750  -27.4910 C   0  0  0  0  0  0  0  0  0  0  0  0
    1.0770   -7.5450  -27.2020 C   0  0  0  0  0  3  0  0  0  0  0  0
    3.2740   -8.4950  -27.4180 N   0  0  0  0  0  0  0  0  0  0  0  0
    3.2550   -9.7020  -26.7290 C   0  0  0  0  0  0  0  0  0  0  0  0
    2.1140  -10.2510  -26.1560 C   0  0  0  0  0  3  0  0  0  0  0  0
    2.1950  -11.4790  -25.4990 C   0  0  0  0  0  3  0  0  0  0  0  0
    3.4140  -12.1370  -25.4370 C   0  0  0  0  0  3  0  0  0  0  0  0
    4.4990  -11.5380  -26.0460 C   0  0  0  0  0  3  0  0  0  0  0  0
    4.4410  -10.3500  -26.6890 N   0  0  0  0  0  0  0  0  0  0  0  0
    4.1810   -8.3880  -27.8600 H   0  0  0  0  0  0  0  0  0  0  0  0
  1 14  1  0  0  0  0
  1  2  1  0  0  0  0
  3  2  2  0  0  0  0
  4  3  1  0  0  0  0
  5 11  1  0  0  0  0
  5  4  2  0  0  0  0
  6  5  1  0  0  0  0
  7  6  1  0  0  0  0
  7 12  1  0  0  0  0
  8  9  1  0  0  0  0
  8  6  2  0  0  0  0
  9 10  2  0  0  0  0
 10 11  1  0  0  0  0
 11  1  2  0  0  0  0
 13 16  1  0  0  0  0
 13 14  1  0  0  0  0
 14 15  2  0  0  0  0
 17 13  1  0  0  0  0
 18  7  1  0  0  0  0
 19 24  1  0  0  0  0
 19 18  1  0  0  0  0
 20 19  2  0  0  0  0
 21 22  2  0  0  0  0
 21 20  1  0  0  0  0
 22 23  1  0  0  0  0
 23 25  1  0  0  0  0
 23 24  2  0  0  0  0
 25 26  1  0  0  0  0
 26 31  2  0  0  0  0
 26 27  1  0  0  0  0
 27 28  2  0  0  0  0
 28 29  1  0  0  0  0
 30 29  2  0  0  0  0
 31 30  1  0  0  0  0
 32 25  1  0  0  0  0
M  END
>  <minimizedAffinity>
-8.02541351

$$$$

 OpenBabel10152419593D

 32 35  0  0  0  0  0  0  0  0999 V2000
    3.2470  -12.2980  -26.0910 C   0  0  0  0  0  0  0  0  0  0  0  0
    4.2490  -12.6800  -25.1880 C   0  0  0  0  0  3  0  0  0  0  0  0
    3.9370  -12.8190  -23.8460 C   0  0  0  0  0  3  0  0  0  0  0  0
    2.6290  -12.5840  -23.4290 C   0  0  0  0  0  3  0  0  0  0  0  0
    1.6090  -12.2100  -24.3480 C   0  0  0  0  0  0  0  0  0  0  0  0
    0.2630  -11.9860  -23.9910 C   0  0  0  0  0  0  0  0  0  0  0  0
   -0.1540  -12.1750  -22.6790 N   0  0  0  0  0  0  0  0  0  0  0  0
   -0.6480  -11.5730  -24.8870 N   0  0  0  0  0  0  0  0  0  0  0  0
   -0.2390  -11.4440  -26.1490 C   0  0  0  0  0  3  0  0  0  0  0  0
    0.9910  -11.6870  -26.6050 N   0  0  0  0  0  0  0  0  0  0  0  0
    1.9240  -12.0480  -25.7080 C   0  0  0  0  0  0  0  0  0  0  0  0
    0.2660  -12.9520  -22.1870 H   0  0  0  0  0  0  0  0  0  0  0  0
    2.9730  -12.9590  -28.3820 N   0  0  0  0  0  0  0  0  0  0  0  0
    3.6430  -12.1540  -27.5020 C   0  0  0  0  0  0  0  0  0  0  0  0
    4.5560  -11.4190  -27.8460 O   0  0  0  0  0  0  0  0  0  0  0  0
    3.2200  -12.8930  -29.3600 H   0  0  0  0  0  0  0  0  0  0  0  0
    2.2090  -13.5620  -28.1110 H   0  0  0  0  0  0  0  0  0  0  0  0
   -1.5060  -11.8370  -22.2740 C   0  0  0  0  0  2  0  0  0  0  0  0
   -1.5700  -10.3490  -22.0130 C   0  0  0  0  0  0  0  0  0  0  0  0
   -1.6050   -9.8350  -20.7150 C   0  0  0  0  0  3  0  0  0  0  0  0
   -1.7050   -8.4590  -20.5170 C   0  0  0  0  0  3  0  0  0  0  0  0
   -1.7800   -7.5890  -21.6100 C   0  0  0  0  0  3  0  0  0  0  0  0
   -1.7620   -8.0740  -22.9200 C   0  0  0  0  0  0  0  0  0  0  0  0
   -1.6500   -9.4610  -23.1010 C   0  0  0  0  0  3  0  0  0  0  0  0
   -1.8100   -7.2620  -24.0590 N   0  0  0  0  0  0  0  0  0  0  0  0
   -0.9080   -6.8880  -25.0480 C   0  0  0  0  0  0  0  0  0  0  0  0
    0.2660   -7.5770  -25.3280 C   0  0  0  0  0  3  0  0  0  0  0  0
    1.0980   -7.1300  -26.3550 C   0  0  0  0  0  3  0  0  0  0  0  0
    0.7340   -6.0090  -27.0850 C   0  0  0  0  0  3  0  0  0  0  0  0
   -0.4560   -5.3890  -26.7600 C   0  0  0  0  0  3  0  0  0  0  0  0
   -1.2770   -5.8070  -25.7700 N   0  0  0  0  0  0  0  0  0  0  0  0
   -2.6450   -6.6930  -24.1490 H   0  0  0  0  0  0  0  0  0  0  0  0
  1 11  2  0  0  0  0
  1  2  1  0  0  0  0
  2  3  2  0  0  0  0
  3  4  1  0  0  0  0
  5  6  1  0  0  0  0
  5  4  2  0  0  0  0
  6  7  1  0  0  0  0
  7 18  1  0  0  0  0
  7 12  1  0  0  0  0
  8  6  2  0  0  0  0
  9  8  1  0  0  0  0
 10  9  2  0  0  0  0
 10 11  1  0  0  0  0
 11  5  1  0  0  0  0
 13 17  1  0  0  0  0
 13 14  1  0  0  0  0
 14  1  1  0  0  0  0
 15 14  2  0  0  0  0
 16 13  1  0  0  0  0
 18 19  1  0  0  0  0
 19 20  1  0  0  0  0
 20 21  2  0  0  0  0
 22 21  1  0  0  0  0
 23 22  2  0  0  0  0
 24 23  1  0  0  0  0
 24 19  2  0  0  0  0
 25 23  1  0  0  0  0
 26 25  1  0  0  0  0
 27 26  1  0  0  0  0
 28 27  2  0  0  0  0
 29 30  2  0  0  0  0
 29 28  1  0  0  0  0
 30 31  1  0  0  0  0
 31 26  2  0  0  0  0
 32 25  1  0  0  0  0
M  END
>  <minimizedAffinity>
-7.98824358

$$$$
