
 OpenBabel10152419593D

 32 35  0  0  0  0  0  0  0  0999 V2000
   -1.7580  -10.1170  -21.8950 C   0  0  0  0  0  0  0  0  0  0  0  0
   -1.7330   -9.1080  -20.9220 C   0  0  0  0  0  3  0  0  0  0  0  0
   -1.6110   -7.7870  -21.3180 C   0  0  0  0  0  3  0  0  0  0  0  0
   -1.5270   -7.4930  -22.6770 C   0  0  0  0  0  3  0  0  0  0  0  0
   -1.5670   -8.5170  -23.6640 C   0  0  0  0  0  0  0  0  0  0  0  0
   -1.5140   -8.2810  -25.0540 C   0  0  0  0  0  0  0  0  0  0  0  0
   -1.4660   -6.9810  -25.5420 N   0  0  0  0  0  0  0  0  0  0  0  0
   -1.4930   -9.2880  -25.9430 N   0  0  0  0  0  0  0  0  0  0  0  0
   -1.5880  -10.5260  -25.4570 C   0  0  0  0  0  3  0  0  0  0  0  0
   -1.7030  -10.8570  -24.1690 N   0  0  0  0  0  0  0  0  0  0  0  0
   -1.6700   -9.8610  -23.2680 C   0  0  0  0  0  0  0  0  0  0  0  0
   -2.0180   -6.2980  -25.0410 H   0  0  0  0  0  0  0  0  0  0  0  0
   -1.0080  -12.3950  -21.9770 N   0  0  0  0  0  0  0  0  0  0  0  0
   -1.8770  -11.5030  -21.4110 C   0  0  0  0  0  0  0  0  0  0  0  0
   -2.7410  -11.8390  -20.6160 O   0  0  0  0  0  0  0  0  0  0  0  0
   -1.0610  -13.3590  -21.6740 H   0  0  0  0  0  0  0  0  0  0  0  0
   -0.2820  -12.1270  -22.6260 H   0  0  0  0  0  0  0  0  0  0  0  0
   -1.2940   -6.7270  -26.9610 C   0  0  0  0  0  2  0  0  0  0  0  0
    0.1720   -6.4690  -27.2270 C   0  0  0  0  0  0  0  0  0  0  0  0
    0.6430   -5.1940  -27.5490 C   0  0  0  0  0  3  0  0  0  0  0  0
    1.9950   -5.0050  -27.8270 C   0  0  0  0  0  3  0  0  0  0  0  0
    2.8840   -6.0860  -27.7950 C   0  0  0  0  0  3  0  0  0  0  0  0
    2.4400   -7.3750  -27.4910 C   0  0  0  0  0  0  0  0  0  0  0  0
    1.0770   -7.5450  -27.2020 C   0  0  0  0  0  3  0  0  0  0  0  0
    3.2740   -8.4950  -27.4180 N   0  0  0  0  0  0  0  0  0  0  0  0
    3.2550   -9.7020  -26.7290 C   0  0  0  0  0  0  0  0  0  0  0  0
    2.1140  -10.2510  -26.1560 C   0  0  0  0  0  3  0  0  0  0  0  0
    2.1950  -11.4790  -25.4990 C   0  0  0  0  0  3  0  0  0  0  0  0
    3.4140  -12.1370  -25.4370 C   0  0  0  0  0  3  0  0  0  0  0  0
    4.4990  -11.5380  -26.0460 C   0  0  0  0  0  3  0  0  0  0  0  0
    4.4410  -10.3500  -26.6890 N   0  0  0  0  0  0  0  0  0  0  0  0
    4.1810   -8.3880  -27.8600 H   0  0  0  0  0  0  0  0  0  0  0  0
  1 14  1  0  0  0  0
  1  2  1  0  0  0  0
  3  2  2  0  0  0  0
  4  3  1  0  0  0  0
  5 11  1  0  0  0  0
  5  4  2  0  0  0  0
  6  5  1  0  0  0  0
  7  6  1  0  0  0  0
  7 12  1  0  0  0  0
  8  9  1  0  0  0  0
  8  6  2  0  0  0  0
  9 10  2  0  0  0  0
 10 11  1  0  0  0  0
 11  1  2  0  0  0  0
 13 16  1  0  0  0  0
 13 14  1  0  0  0  0
 14 15  2  0  0  0  0
 17 13  1  0  0  0  0
 18  7  1  0  0  0  0
 19 24  1  0  0  0  0
 19 18  1  0  0  0  0
 20 19  2  0  0  0  0
 21 22  2  0  0  0  0
 21 20  1  0  0  0  0
 22 23  1  0  0  0  0
 23 25  1  0  0  0  0
 23 24  2  0  0  0  0
 25 26  1  0  0  0  0
 26 31  2  0  0  0  0
 26 27  1  0  0  0  0
 27 28  2  0  0  0  0
 28 29  1  0  0  0  0
 30 29  2  0  0  0  0
 31 30  1  0  0  0  0
 32 25  1  0  0  0  0
M  END
>  <minimizedAffinity>
-8.02541351

$$$$
