
 OpenBabel10152419593D

 32 35  0  0  0  0  0  0  0  0999 V2000
    3.2470  -12.2980  -26.0910 C   0  0  0  0  0  0  0  0  0  0  0  0
    4.2490  -12.6800  -25.1880 C   0  0  0  0  0  3  0  0  0  0  0  0
    3.9370  -12.8190  -23.8460 C   0  0  0  0  0  3  0  0  0  0  0  0
    2.6290  -12.5840  -23.4290 C   0  0  0  0  0  3  0  0  0  0  0  0
    1.6090  -12.2100  -24.3480 C   0  0  0  0  0  0  0  0  0  0  0  0
    0.2630  -11.9860  -23.9910 C   0  0  0  0  0  0  0  0  0  0  0  0
   -0.1540  -12.1750  -22.6790 N   0  0  0  0  0  0  0  0  0  0  0  0
   -0.6480  -11.5730  -24.8870 N   0  0  0  0  0  0  0  0  0  0  0  0
   -0.2390  -11.4440  -26.1490 C   0  0  0  0  0  3  0  0  0  0  0  0
    0.9910  -11.6870  -26.6050 N   0  0  0  0  0  0  0  0  0  0  0  0
    1.9240  -12.0480  -25.7080 C   0  0  0  0  0  0  0  0  0  0  0  0
    0.2660  -12.9520  -22.1870 H   0  0  0  0  0  0  0  0  0  0  0  0
    2.9730  -12.9590  -28.3820 N   0  0  0  0  0  0  0  0  0  0  0  0
    3.6430  -12.1540  -27.5020 C   0  0  0  0  0  0  0  0  0  0  0  0
    4.5560  -11.4190  -27.8460 O   0  0  0  0  0  0  0  0  0  0  0  0
    3.2200  -12.8930  -29.3600 H   0  0  0  0  0  0  0  0  0  0  0  0
    2.2090  -13.5620  -28.1110 H   0  0  0  0  0  0  0  0  0  0  0  0
   -1.5060  -11.8370  -22.2740 C   0  0  0  0  0  2  0  0  0  0  0  0
   -1.5700  -10.3490  -22.0130 C   0  0  0  0  0  0  0  0  0  0  0  0
   -1.6050   -9.8350  -20.7150 C   0  0  0  0  0  3  0  0  0  0  0  0
   -1.7050   -8.4590  -20.5170 C   0  0  0  0  0  3  0  0  0  0  0  0
   -1.7800   -7.5890  -21.6100 C   0  0  0  0  0  3  0  0  0  0  0  0
   -1.7620   -8.0740  -22.9200 C   0  0  0  0  0  0  0  0  0  0  0  0
   -1.6500   -9.4610  -23.1010 C   0  0  0  0  0  3  0  0  0  0  0  0
   -1.8100   -7.2620  -24.0590 N   0  0  0  0  0  0  0  0  0  0  0  0
   -0.9080   -6.8880  -25.0480 C   0  0  0  0  0  0  0  0  0  0  0  0
    0.2660   -7.5770  -25.3280 C   0  0  0  0  0  3  0  0  0  0  0  0
    1.0980   -7.1300  -26.3550 C   0  0  0  0  0  3  0  0  0  0  0  0
    0.7340   -6.0090  -27.0850 C   0  0  0  0  0  3  0  0  0  0  0  0
   -0.4560   -5.3890  -26.7600 C   0  0  0  0  0  3  0  0  0  0  0  0
   -1.2770   -5.8070  -25.7700 N   0  0  0  0  0  0  0  0  0  0  0  0
   -2.6450   -6.6930  -24.1490 H   0  0  0  0  0  0  0  0  0  0  0  0
  1 11  2  0  0  0  0
  1  2  1  0  0  0  0
  2  3  2  0  0  0  0
  3  4  1  0  0  0  0
  5  6  1  0  0  0  0
  5  4  2  0  0  0  0
  6  7  1  0  0  0  0
  7 18  1  0  0  0  0
  7 12  1  0  0  0  0
  8  6  2  0  0  0  0
  9  8  1  0  0  0  0
 10  9  2  0  0  0  0
 10 11  1  0  0  0  0
 11  5  1  0  0  0  0
 13 17  1  0  0  0  0
 13 14  1  0  0  0  0
 14  1  1  0  0  0  0
 15 14  2  0  0  0  0
 16 13  1  0  0  0  0
 18 19  1  0  0  0  0
 19 20  1  0  0  0  0
 20 21  2  0  0  0  0
 22 21  1  0  0  0  0
 23 22  2  0  0  0  0
 24 23  1  0  0  0  0
 24 19  2  0  0  0  0
 25 23  1  0  0  0  0
 26 25  1  0  0  0  0
 27 26  1  0  0  0  0
 28 27  2  0  0  0  0
 29 30  2  0  0  0  0
 29 28  1  0  0  0  0
 30 31  1  0  0  0  0
 31 26  2  0  0  0  0
 32 25  1  0  0  0  0
M  END
>  <minimizedAffinity>
-7.98824358

$$$$
