REMARK  Name = 
REMARK  4 active torsions:
REMARK  status: ('A' for Active; 'I' for Inactive)
REMARK    1  A    between atoms: C_2  and  C_4
REMARK    2  A    between atoms: N_10  and  C_11
REMARK    3  A    between atoms: C_11  and  C_12
REMARK    4  A    between atoms: C_16  and  N_17
REMARK                            x       y       z     vdW  Elec       q    Type
REMARK                         _______ _______ _______ _____ _____    ______ ____
ROOT
ATOM      1  C   UNL     1       0.816  -1.973  -1.846  0.00  0.00    +0.063 A 
ATOM      2  C   UNL     1       1.897  -2.735  -1.381  0.00  0.00    +0.015 A 
ATOM      3  C   UNL     1       2.572  -3.564  -2.261  0.00  0.00    +0.002 A 
ATOM      4  C   UNL     1       2.165  -3.611  -3.592  0.00  0.00    +0.013 A 
ATOM      5  C   UNL     1       1.077  -2.827  -4.067  0.00  0.00    +0.041 A 
ATOM      6  C   UNL     1       0.636  -2.810  -5.407  0.00  0.00    +0.130 A 
ATOM      7  N   UNL     1       1.303  -3.555  -6.372  0.00  0.00    -0.324 N 
ATOM      8  N   UNL     1      -0.436  -2.099  -5.791  0.00  0.00    -0.220 NA
ATOM      9  C   UNL     1      -1.033  -1.354  -4.860  0.00  0.00    +0.223 A 
ATOM     10  N   UNL     1      -0.663  -1.249  -3.582  0.00  0.00    -0.235 NA
ATOM     11  C   UNL     1       0.375  -1.999  -3.174  0.00  0.00    +0.088 A 
ATOM     12  H   UNL     1       2.309  -3.599  -6.283  0.00  0.00    +0.148 HD
ENDROOT
BRANCH   1  14
ATOM     13  N   UNL     1       0.791   0.027  -0.520  0.00  0.00    -0.325 N 
ATOM     14  C   UNL     1       0.130  -1.121  -0.860  0.00  0.00    +0.244 C 
ATOM     15  O   UNL     1      -0.919  -1.458  -0.333  0.00  0.00    -0.270 OA
ATOM     16  H   UNL     1       0.354   0.637   0.158  0.00  0.00    +0.145 HD
ATOM     17  H   UNL     1       1.653   0.321  -0.957  0.00  0.00    +0.145 HD
ENDBRANCH   1  14
BRANCH   7  18
ATOM     18  C   UNL     1       0.792  -3.639  -7.728  0.00  0.00    +0.138 C 
BRANCH  18  19
ATOM     19  C   UNL     1       1.965  -3.641  -8.682  0.00  0.00    -0.029 A 
ATOM     20  C   UNL     1       2.444  -4.824  -9.250  0.00  0.00    +0.005 A 
ATOM     21  C   UNL     1       3.553  -4.789 -10.093  0.00  0.00    +0.002 A 
ATOM     22  C   UNL     1       4.197  -3.577 -10.367  0.00  0.00    +0.023 A 
ATOM     23  C   UNL     1       3.751  -2.380  -9.802  0.00  0.00    +0.033 A 
ATOM     24  C   UNL     1       2.626  -2.432  -8.965  0.00  0.00    +0.028 A 
BRANCH  23  25
ATOM     25  N   UNL     1       4.331  -1.131 -10.050  0.00  0.00    -0.299 N 
ATOM     26  C   UNL     1       5.139  -0.593 -11.045  0.00  0.00    +0.123 A 
ATOM     27  C   UNL     1       5.287  -1.150 -12.310  0.00  0.00    +0.044 A 
ATOM     28  C   UNL     1       6.109  -0.523 -13.247  0.00  0.00    +0.005 A 
ATOM     29  C   UNL     1       6.759   0.652 -12.901  0.00  0.00    +0.020 A 
ATOM     30  C   UNL     1       6.548   1.154 -11.632  0.00  0.00    +0.113 A 
ATOM     31  N   UNL     1       5.754   0.563 -10.711  0.00  0.00    -0.240 NA
ATOM     32  H   UNL     1       4.279  -0.470  -9.282  0.00  0.00    +0.154 HD
ENDBRANCH  23  25
ENDBRANCH  18  19
ENDBRANCH   7  18
TORSDOF 4
