
 OpenBabel10152419543D

 39 42  0  0  1  0  0  0  0  0999 V2000
    0.5400  -12.2360  -24.4250 C   0  0  0  0  0  0  0  0  0  0  0  0
    1.9230  -12.0900  -24.5700 C   0  0  0  0  0  3  0  0  0  0  0  0
    2.4860  -11.7110  -25.8050 C   0  0  0  0  0  0  0  0  0  0  0  0
    1.6230  -11.4190  -26.8760 C   0  0  0  0  0  3  0  0  0  0  0  0
    0.2380  -11.4840  -26.7100 C   0  0  0  0  0  3  0  0  0  0  0  0
   -0.2950  -11.8870  -25.4900 C   0  0  0  0  0  0  0  0  0  0  0  0
   -1.6290  -11.9100  -25.3550 F   0  0  0  0  0  0  0  0  0  0  0  0
   -0.3630  -12.1030  -22.0730 C   0  0  0  0  0  0  0  0  0  0  0  0
   -0.4540  -12.7260  -21.0160 O   0  0  0  0  0  0  0  0  0  0  0  0
    0.0740  -12.7590  -23.2060 N   0  0  0  0  0  0  0  0  0  0  0  0
    0.0130  -13.7660  -23.1190 H   0  0  0  0  0  0  0  0  0  0  0  0
   -1.7850   -8.0400  -22.3100 C   0  0  0  0  0  0  0  0  0  0  0  0
   -1.3470   -8.7220  -23.4490 C   0  0  0  0  0  3  0  0  0  0  0  0
   -0.8980  -10.0450  -23.3620 C   0  0  0  0  0  3  0  0  0  0  0  0
   -0.8780  -10.7050  -22.1280 C   0  0  0  0  0  0  0  0  0  0  0  0
   -1.2540  -10.0000  -20.9800 C   0  0  0  0  0  3  0  0  0  0  0  0
   -1.7370   -8.6980  -21.0810 C   0  0  0  0  0  0  0  0  0  0  0  0
   -2.1520   -8.1100  -19.9490 F   0  0  0  0  0  0  0  0  0  0  0  0
   -1.2040   -5.7600  -22.6580 C   0  0  0  0  0  1  0  0  0  0  0  0
   -2.2110   -6.7600  -22.5430 O   0  0  0  0  0  0  0  0  0  0  0  0
    3.9980  -11.6040  -25.9890 C   0  0  1  0  0  3  0  0  0  0  0  0
    4.3940  -12.1910  -27.3500 C   0  0  0  0  0  1  0  0  0  0  0  0
    4.4270  -10.2140  -25.9240 N   0  0  0  0  0  0  0  0  0  0  0  0
    5.4320  -10.0770  -25.8630 H   0  0  0  0  0  0  0  0  0  0  0  0
    3.9320   -9.2010  -26.7210 C   0  0  0  0  0  0  0  0  0  0  0  0
    4.5910   -9.1370  -27.8970 N   0  0  0  0  0  0  0  0  0  0  0  0
    4.1810   -8.2410  -28.8100 C   0  0  0  0  0  3  0  0  0  0  0  0
    3.1370   -7.3630  -28.6050 C   0  0  0  0  0  3  0  0  0  0  0  0
    2.4770   -7.3480  -27.3630 C   0  0  0  0  0  0  0  0  0  0  0  0
    1.4180   -6.4470  -27.0430 C   0  0  0  0  0  0  0  0  0  0  0  0
    0.7770   -6.4890  -25.7980 C   0  0  0  0  0  3  0  0  0  0  0  0
    1.2040   -7.3810  -24.8320 C   0  0  0  0  0  3  0  0  0  0  0  0
    2.2510   -8.2530  -25.1200 C   0  0  0  0  0  3  0  0  0  0  0  0
    2.8890   -8.2960  -26.3840 C   0  0  0  0  0  0  0  0  0  0  0  0
    0.8940   -5.4140  -27.9720 C   0  0  0  0  0  0  0  0  0  0  0  0
    1.7160   -4.3680  -28.2770 N   0  0  0  0  0  0  0  0  0  0  0  0
   -0.2570   -5.4590  -28.3880 O   0  0  0  0  0  0  0  0  0  0  0  0
    1.3430   -3.6430  -28.8760 H   0  0  0  0  0  0  0  0  0  0  0  0
    2.6330   -4.2420  -27.8710 H   0  0  0  0  0  0  0  0  0  0  0  0
  1 10  1  0  0  0  0
  2  1  1  0  0  0  0
  3  2  2  0  0  0  0
  4  5  2  0  0  0  0
  4  3  1  0  0  0  0
  5  6  1  0  0  0  0
  6  7  1  0  0  0  0
  6  1  2  0  0  0  0
  8  9  2  0  0  0  0
 10 11  1  0  0  0  0
 10  8  1  0  0  0  0
 12 17  1  0  0  0  0
 13 14  1  0  0  0  0
 13 12  2  0  0  0  0
 14 15  2  0  0  0  0
 15  8  1  0  0  0  0
 15 16  1  0  0  0  0
 17 16  2  0  0  0  0
 17 18  1  0  0  0  0
 19 20  1  0  0  0  0
 20 12  1  0  0  0  0
 21 22  1  6  0  0  0
 21 23  1  0  0  0  0
 21  3  1  0  0  0  0
 23 24  1  0  0  0  0
 25 34  1  0  0  0  0
 25 23  1  0  0  0  0
 26 25  2  0  0  0  0
 27 28  2  0  0  0  0
 27 26  1  0  0  0  0
 28 29  1  0  0  0  0
 29 30  2  0  0  0  0
 29 34  1  0  0  0  0
 30 31  1  0  0  0  0
 31 32  2  0  0  0  0
 33 32  1  0  0  0  0
 34 33  2  0  0  0  0
 35 30  1  0  0  0  0
 36 35  1  0  0  0  0
 36 39  1  0  0  0  0
 37 35  2  0  0  0  0
 38 36  1  0  0  0  0
M  END
>  <minimizedAffinity>
-9.94778061

$$$$
