
 OpenBabel10152419543D

 39 42  0  0  1  0  0  0  0  0999 V2000
    0.5400  -12.2360  -24.4250 C   0  0  0  0  0  0  0  0  0  0  0  0
    1.9230  -12.0900  -24.5700 C   0  0  0  0  0  3  0  0  0  0  0  0
    2.4860  -11.7110  -25.8050 C   0  0  0  0  0  0  0  0  0  0  0  0
    1.6230  -11.4190  -26.8760 C   0  0  0  0  0  3  0  0  0  0  0  0
    0.2380  -11.4840  -26.7100 C   0  0  0  0  0  3  0  0  0  0  0  0
   -0.2950  -11.8870  -25.4900 C   0  0  0  0  0  0  0  0  0  0  0  0
   -1.6290  -11.9100  -25.3550 F   0  0  0  0  0  0  0  0  0  0  0  0
   -0.3630  -12.1030  -22.0730 C   0  0  0  0  0  0  0  0  0  0  0  0
   -0.4540  -12.7260  -21.0160 O   0  0  0  0  0  0  0  0  0  0  0  0
    0.0740  -12.7590  -23.2060 N   0  0  0  0  0  0  0  0  0  0  0  0
    0.0130  -13.7660  -23.1190 H   0  0  0  0  0  0  0  0  0  0  0  0
   -1.7850   -8.0400  -22.3100 C   0  0  0  0  0  0  0  0  0  0  0  0
   -1.3470   -8.7220  -23.4490 C   0  0  0  0  0  3  0  0  0  0  0  0
   -0.8980  -10.0450  -23.3620 C   0  0  0  0  0  3  0  0  0  0  0  0
   -0.8780  -10.7050  -22.1280 C   0  0  0  0  0  0  0  0  0  0  0  0
   -1.2540  -10.0000  -20.9800 C   0  0  0  0  0  3  0  0  0  0  0  0
   -1.7370   -8.6980  -21.0810 C   0  0  0  0  0  0  0  0  0  0  0  0
   -2.1520   -8.1100  -19.9490 F   0  0  0  0  0  0  0  0  0  0  0  0
   -1.2040   -5.7600  -22.6580 C   0  0  0  0  0  1  0  0  0  0  0  0
   -2.2110   -6.7600  -22.5430 O   0  0  0  0  0  0  0  0  0  0  0  0
    3.9980  -11.6040  -25.9890 C   0  0  1  0  0  3  0  0  0  0  0  0
    4.3940  -12.1910  -27.3500 C   0  0  0  0  0  1  0  0  0  0  0  0
    4.4270  -10.2140  -25.9240 N   0  0  0  0  0  0  0  0  0  0  0  0
    5.4320  -10.0770  -25.8630 H   0  0  0  0  0  0  0  0  0  0  0  0
    3.9320   -9.2010  -26.7210 C   0  0  0  0  0  0  0  0  0  0  0  0
    4.5910   -9.1370  -27.8970 N   0  0  0  0  0  0  0  0  0  0  0  0
    4.1810   -8.2410  -28.8100 C   0  0  0  0  0  3  0  0  0  0  0  0
    3.1370   -7.3630  -28.6050 C   0  0  0  0  0  3  0  0  0  0  0  0
    2.4770   -7.3480  -27.3630 C   0  0  0  0  0  0  0  0  0  0  0  0
    1.4180   -6.4470  -27.0430 C   0  0  0  0  0  0  0  0  0  0  0  0
    0.7770   -6.4890  -25.7980 C   0  0  0  0  0  3  0  0  0  0  0  0
    1.2040   -7.3810  -24.8320 C   0  0  0  0  0  3  0  0  0  0  0  0
    2.2510   -8.2530  -25.1200 C   0  0  0  0  0  3  0  0  0  0  0  0
    2.8890   -8.2960  -26.3840 C   0  0  0  0  0  0  0  0  0  0  0  0
    0.8940   -5.4140  -27.9720 C   0  0  0  0  0  0  0  0  0  0  0  0
    1.7160   -4.3680  -28.2770 N   0  0  0  0  0  0  0  0  0  0  0  0
   -0.2570   -5.4590  -28.3880 O   0  0  0  0  0  0  0  0  0  0  0  0
    1.3430   -3.6430  -28.8760 H   0  0  0  0  0  0  0  0  0  0  0  0
    2.6330   -4.2420  -27.8710 H   0  0  0  0  0  0  0  0  0  0  0  0
  1 10  1  0  0  0  0
  2  1  1  0  0  0  0
  3  2  2  0  0  0  0
  4  5  2  0  0  0  0
  4  3  1  0  0  0  0
  5  6  1  0  0  0  0
  6  7  1  0  0  0  0
  6  1  2  0  0  0  0
  8  9  2  0  0  0  0
 10 11  1  0  0  0  0
 10  8  1  0  0  0  0
 12 17  1  0  0  0  0
 13 14  1  0  0  0  0
 13 12  2  0  0  0  0
 14 15  2  0  0  0  0
 15  8  1  0  0  0  0
 15 16  1  0  0  0  0
 17 16  2  0  0  0  0
 17 18  1  0  0  0  0
 19 20  1  0  0  0  0
 20 12  1  0  0  0  0
 21 22  1  6  0  0  0
 21 23  1  0  0  0  0
 21  3  1  0  0  0  0
 23 24  1  0  0  0  0
 25 34  1  0  0  0  0
 25 23  1  0  0  0  0
 26 25  2  0  0  0  0
 27 28  2  0  0  0  0
 27 26  1  0  0  0  0
 28 29  1  0  0  0  0
 29 30  2  0  0  0  0
 29 34  1  0  0  0  0
 30 31  1  0  0  0  0
 31 32  2  0  0  0  0
 33 32  1  0  0  0  0
 34 33  2  0  0  0  0
 35 30  1  0  0  0  0
 36 35  1  0  0  0  0
 36 39  1  0  0  0  0
 37 35  2  0  0  0  0
 38 36  1  0  0  0  0
M  END
>  <minimizedAffinity>
-9.94778061

$$$$

 OpenBabel10152419543D

 39 42  0  0  1  0  0  0  0  0999 V2000
    0.7650  -11.7600  -25.7430 C   0  0  0  0  0  0  0  0  0  0  0  0
    1.9540  -11.3980  -26.3840 C   0  0  0  0  0  3  0  0  0  0  0  0
    3.2060  -11.6700  -25.7970 C   0  0  0  0  0  0  0  0  0  0  0  0
    3.2380  -12.3700  -24.5790 C   0  0  0  0  0  3  0  0  0  0  0  0
    2.0560  -12.8050  -23.9770 C   0  0  0  0  0  3  0  0  0  0  0  0
    0.8300  -12.5020  -24.5610 C   0  0  0  0  0  0  0  0  0  0  0  0
   -0.2860  -12.9590  -23.9740 F   0  0  0  0  0  0  0  0  0  0  0  0
   -1.5600  -10.7820  -25.7330 C   0  0  0  0  0  0  0  0  0  0  0  0
   -2.6110  -10.7330  -26.3720 O   0  0  0  0  0  0  0  0  0  0  0  0
   -0.4380  -11.3220  -26.3260 N   0  0  0  0  0  0  0  0  0  0  0  0
   -0.5170  -11.3710  -27.3350 H   0  0  0  0  0  0  0  0  0  0  0  0
   -1.4290   -8.9400  -21.8370 C   0  0  0  0  0  0  0  0  0  0  0  0
   -1.3510  -10.3290  -21.9860 C   0  0  0  0  0  3  0  0  0  0  0  0
   -1.3840  -10.9150  -23.2570 C   0  0  0  0  0  3  0  0  0  0  0  0
   -1.4990  -10.1170  -24.4000 C   0  0  0  0  0  0  0  0  0  0  0  0
   -1.6430   -8.7340  -24.2470 C   0  0  0  0  0  3  0  0  0  0  0  0
   -1.5690   -8.1560  -22.9820 C   0  0  0  0  0  0  0  0  0  0  0  0
   -1.6380   -6.8180  -22.9170 F   0  0  0  0  0  0  0  0  0  0  0  0
   -2.5470   -7.9010  -20.0130 C   0  0  0  0  0  1  0  0  0  0  0  0
   -1.3700   -8.5040  -20.5410 O   0  0  0  0  0  0  0  0  0  0  0  0
    4.5080  -11.2290  -26.4620 C   0  0  1  0  0  3  0  0  0  0  0  0
    4.4490  -11.5360  -27.9630 C   0  0  0  0  0  1  0  0  0  0  0  0
    4.7220   -9.8000  -26.2740 N   0  0  0  0  0  0  0  0  0  0  0  0
    5.6930   -9.5220  -26.1670 H   0  0  0  0  0  0  0  0  0  0  0  0
    4.0990   -8.8100  -27.0060 C   0  0  0  0  0  0  0  0  0  0  0  0
    4.7020   -8.6290  -28.1990 N   0  0  0  0  0  0  0  0  0  0  0  0
    4.1710   -7.7410  -29.0550 C   0  0  0  0  0  3  0  0  0  0  0  0
    3.0530   -6.9820  -28.7740 C   0  0  0  0  0  3  0  0  0  0  0  0
    2.4420   -7.0880  -27.5110 C   0  0  0  0  0  0  0  0  0  0  0  0
    1.3120   -6.3130  -27.1150 C   0  0  0  0  0  0  0  0  0  0  0  0
    0.7260   -6.4730  -25.8530 C   0  0  0  0  0  3  0  0  0  0  0  0
    1.2760   -7.3580  -24.9440 C   0  0  0  0  0  3  0  0  0  0  0  0
    2.3930   -8.1060  -25.3070 C   0  0  0  0  0  3  0  0  0  0  0  0
    2.9840   -8.0300  -26.5920 C   0  0  0  0  0  0  0  0  0  0  0  0
    0.6530   -5.2990  -27.9770 C   0  0  0  0  0  0  0  0  0  0  0  0
    1.4060   -4.2360  -28.3840 N   0  0  0  0  0  0  0  0  0  0  0  0
   -0.5390   -5.3750  -28.2490 O   0  0  0  0  0  0  0  0  0  0  0  0
    0.9440   -3.5240  -28.9360 H   0  0  0  0  0  0  0  0  0  0  0  0
    2.3610   -4.0850  -28.0940 H   0  0  0  0  0  0  0  0  0  0  0  0
  1  6  1  0  0  0  0
  2  3  1  0  0  0  0
  2  1  2  0  0  0  0
  3  4  2  0  0  0  0
  4  5  1  0  0  0  0
  6  5  2  0  0  0  0
  6  7  1  0  0  0  0
  8 15  1  0  0  0  0
  9  8  2  0  0  0  0
 10  1  1  0  0  0  0
 10  8  1  0  0  0  0
 11 10  1  0  0  0  0
 12 20  1  0  0  0  0
 13 12  1  0  0  0  0
 14 13  2  0  0  0  0
 15 16  2  0  0  0  0
 15 14  1  0  0  0  0
 16 17  1  0  0  0  0
 17 18  1  0  0  0  0
 17 12  2  0  0  0  0
 20 19  1  0  0  0  0
 21 22  1  6  0  0  0
 21 23  1  0  0  0  0
 21  3  1  0  0  0  0
 23 24  1  0  0  0  0
 25 34  1  0  0  0  0
 25 23  1  0  0  0  0
 26 25  2  0  0  0  0
 27 28  2  0  0  0  0
 27 26  1  0  0  0  0
 28 29  1  0  0  0  0
 29 30  2  0  0  0  0
 29 34  1  0  0  0  0
 30 31  1  0  0  0  0
 31 32  2  0  0  0  0
 33 32  1  0  0  0  0
 34 33  2  0  0  0  0
 35 30  1  0  0  0  0
 36 39  1  0  0  0  0
 36 35  1  0  0  0  0
 37 35  2  0  0  0  0
 38 36  1  0  0  0  0
M  END
>  <minimizedAffinity>
-9.66794014

$$$$

 OpenBabel10152419543D

 39 42  0  0  1  0  0  0  0  0999 V2000
    0.7330  -12.3980  -24.3340 C   0  0  0  0  0  0  0  0  0  0  0  0
    2.0980  -12.1210  -24.4590 C   0  0  0  0  0  3  0  0  0  0  0  0
    2.6680  -11.8440  -25.7180 C   0  0  0  0  0  0  0  0  0  0  0  0
    1.8240  -11.7890  -26.8400 C   0  0  0  0  0  3  0  0  0  0  0  0
    0.4480  -11.9840  -26.7060 C   0  0  0  0  0  3  0  0  0  0  0  0
   -0.0890  -12.2830  -25.4580 C   0  0  0  0  0  0  0  0  0  0  0  0
   -1.4180  -12.4350  -25.3560 F   0  0  0  0  0  0  0  0  0  0  0  0
   -0.3350  -12.0770  -22.0710 C   0  0  0  0  0  0  0  0  0  0  0  0
   -0.3960  -12.5460  -20.9340 O   0  0  0  0  0  0  0  0  0  0  0  0
    0.2750  -12.8080  -23.0690 N   0  0  0  0  0  0  0  0  0  0  0  0
    0.3680  -13.7880  -22.8300 H   0  0  0  0  0  0  0  0  0  0  0  0
   -2.5040   -8.4330  -22.8510 C   0  0  0  0  0  0  0  0  0  0  0  0
   -2.5940   -9.0800  -21.6140 C   0  0  0  0  0  3  0  0  0  0  0  0
   -1.8760  -10.2570  -21.3680 C   0  0  0  0  0  3  0  0  0  0  0  0
   -1.0590  -10.8060  -22.3620 C   0  0  0  0  0  0  0  0  0  0  0  0
   -1.0210  -10.1950  -23.6200 C   0  0  0  0  0  3  0  0  0  0  0  0
   -1.7060   -9.0040  -23.8430 C   0  0  0  0  0  0  0  0  0  0  0  0
   -1.5640   -8.4330  -25.0490 F   0  0  0  0  0  0  0  0  0  0  0  0
   -4.6420   -7.4440  -23.1760 C   0  0  0  0  0  1  0  0  0  0  0  0
   -3.2460   -7.2870  -22.9470 O   0  0  0  0  0  0  0  0  0  0  0  0
    4.1670  -11.5960  -25.8740 C   0  0  1  0  0  3  0  0  0  0  0  0
    4.7140  -12.4550  -27.0210 C   0  0  0  0  0  1  0  0  0  0  0  0
    4.4290  -10.1920  -26.1590 N   0  0  0  0  0  0  0  0  0  0  0  0
    5.0620  -10.0230  -26.9360 H   0  0  0  0  0  0  0  0  0  0  0  0
    3.4640   -9.2070  -26.2050 C   0  0  0  0  0  0  0  0  0  0  0  0
    2.7420   -9.1750  -25.0650 N   0  0  0  0  0  0  0  0  0  0  0  0
    1.8030   -8.2250  -24.9310 C   0  0  0  0  0  3  0  0  0  0  0  0
    1.5160   -7.2900  -25.9050 C   0  0  0  0  0  3  0  0  0  0  0  0
    2.1950   -7.3390  -27.1360 C   0  0  0  0  0  0  0  0  0  0  0  0
    1.9350   -6.4450  -28.2150 C   0  0  0  0  0  0  0  0  0  0  0  0
    2.6560   -6.5210  -29.4140 C   0  0  0  0  0  3  0  0  0  0  0  0
    3.6050   -7.5120  -29.5870 C   0  0  0  0  0  3  0  0  0  0  0  0
    3.8550   -8.4080  -28.5500 C   0  0  0  0  0  3  0  0  0  0  0  0
    3.2010   -8.3330  -27.2960 C   0  0  0  0  0  0  0  0  0  0  0  0
    0.9160   -5.3660  -28.1780 C   0  0  0  0  0  0  0  0  0  0  0  0
    1.3610   -4.0780  -28.2510 N   0  0  0  0  0  0  0  0  0  0  0  0
   -0.2710   -5.6190  -28.0110 O   0  0  0  0  0  0  0  0  0  0  0  0
    0.6690   -3.3420  -28.1820 H   0  0  0  0  0  0  0  0  0  0  0  0
    2.3390   -3.8270  -28.2830 H   0  0  0  0  0  0  0  0  0  0  0  0
  1 10  1  0  0  0  0
  2  1  1  0  0  0  0
  3  2  2  0  0  0  0
  4  5  2  0  0  0  0
  4  3  1  0  0  0  0
  5  6  1  0  0  0  0
  6  7  1  0  0  0  0
  6  1  2  0  0  0  0
  8  9  2  0  0  0  0
 10 11  1  0  0  0  0
 10  8  1  0  0  0  0
 12 13  1  0  0  0  0
 13 14  2  0  0  0  0
 15  8  1  0  0  0  0
 15 14  1  0  0  0  0
 16 15  2  0  0  0  0
 17 16  1  0  0  0  0
 17 12  2  0  0  0  0
 18 17  1  0  0  0  0
 19 20  1  0  0  0  0
 20 12  1  0  0  0  0
 21 22  1  6  0  0  0
 21  3  1  0  0  0  0
 23 21  1  0  0  0  0
 24 23  1  0  0  0  0
 25 23  1  0  0  0  0
 25 26  1  0  0  0  0
 26 27  2  0  0  0  0
 28 27  1  0  0  0  0
 29 28  2  0  0  0  0
 30 35  1  0  0  0  0
 30 29  1  0  0  0  0
 31 30  2  0  0  0  0
 32 31  1  0  0  0  0
 32 33  2  0  0  0  0
 33 34  1  0  0  0  0
 34 29  1  0  0  0  0
 34 25  2  0  0  0  0
 35 37  2  0  0  0  0
 36 38  1  0  0  0  0
 36 35  1  0  0  0  0
 39 36  1  0  0  0  0
M  END
>  <minimizedAffinity>
-8.78331661

$$$$

 OpenBabel10152419543D

 39 42  0  0  1  0  0  0  0  0999 V2000
    2.7370   -9.8720  -26.7490 C   0  0  0  0  0  0  0  0  0  0  0  0
    1.4890   -9.3820  -26.3530 C   0  0  0  0  0  3  0  0  0  0  0  0
    0.3840  -10.2460  -26.2080 C   0  0  0  0  0  0  0  0  0  0  0  0
    0.5770  -11.6230  -26.4100 C   0  0  0  0  0  3  0  0  0  0  0  0
    1.8410  -12.1250  -26.7260 C   0  0  0  0  0  3  0  0  0  0  0  0
    2.9110  -11.2520  -26.8900 C   0  0  0  0  0  0  0  0  0  0  0  0
    4.1180  -11.7680  -27.1640 F   0  0  0  0  0  0  0  0  0  0  0  0
    3.6360   -7.6130  -27.4200 C   0  0  0  0  0  0  0  0  0  0  0  0
    4.6270   -7.0420  -27.8740 O   0  0  0  0  0  0  0  0  0  0  0  0
    3.7440   -8.9260  -27.0120 N   0  0  0  0  0  0  0  0  0  0  0  0
    4.7050   -9.2100  -26.8670 H   0  0  0  0  0  0  0  0  0  0  0  0
    0.0850   -5.2470  -26.8030 C   0  0  0  0  0  0  0  0  0  0  0  0
    0.7160   -5.2960  -28.0500 C   0  0  0  0  0  3  0  0  0  0  0  0
    1.8630   -6.0760  -28.2420 C   0  0  0  0  0  3  0  0  0  0  0  0
    2.3960   -6.8190  -27.1820 C   0  0  0  0  0  0  0  0  0  0  0  0
    1.8030   -6.7170  -25.9200 C   0  0  0  0  0  3  0  0  0  0  0  0
    0.6400   -5.9710  -25.7480 C   0  0  0  0  0  0  0  0  0  0  0  0
    0.0830   -5.9800  -24.5280 F   0  0  0  0  0  0  0  0  0  0  0  0
   -0.8220   -3.0500  -26.7060 C   0  0  0  0  0  1  0  0  0  0  0  0
   -1.0320   -4.4570  -26.7630 O   0  0  0  0  0  0  0  0  0  0  0  0
   -0.9970   -9.7130  -25.8310 C   0  0  1  0  0  3  0  0  0  0  0  0
   -1.9560  -10.8870  -25.5970 C   0  0  0  0  0  1  0  0  0  0  0  0
   -0.9230   -8.9060  -24.6210 N   0  0  0  0  0  0  0  0  0  0  0  0
   -1.2810   -7.9600  -24.7130 H   0  0  0  0  0  0  0  0  0  0  0  0
   -1.2740   -9.3480  -23.3610 C   0  0  0  0  0  0  0  0  0  0  0  0
   -2.0860   -8.4650  -22.7420 N   0  0  0  0  0  0  0  0  0  0  0  0
   -2.5660   -8.7840  -21.5290 C   0  0  0  0  0  3  0  0  0  0  0  0
   -2.2580   -9.9550  -20.8670 C   0  0  0  0  0  3  0  0  0  0  0  0
   -1.3550  -10.8630  -21.4470 C   0  0  0  0  0  0  0  0  0  0  0  0
   -0.9430  -12.0750  -20.8190 C   0  0  0  0  0  0  0  0  0  0  0  0
   -0.0580  -12.9580  -21.4510 C   0  0  0  0  0  3  0  0  0  0  0  0
    0.4750  -12.6360  -22.6860 C   0  0  0  0  0  3  0  0  0  0  0  0
    0.1000  -11.4450  -23.3030 C   0  0  0  0  0  3  0  0  0  0  0  0
   -0.8410  -10.5500  -22.7370 C   0  0  0  0  0  0  0  0  0  0  0  0
   -1.4050  -12.5190  -19.4790 C   0  0  0  0  0  0  0  0  0  0  0  0
   -0.4500  -12.8890  -18.5770 N   0  0  0  0  0  0  0  0  0  0  0  0
   -2.5970  -12.6200  -19.2200 O   0  0  0  0  0  0  0  0  0  0  0  0
   -0.7680  -13.2320  -17.6790 H   0  0  0  0  0  0  0  0  0  0  0  0
    0.5370  -12.9190  -18.7900 H   0  0  0  0  0  0  0  0  0  0  0  0
  1  2  1  0  0  0  0
  2  3  2  0  0  0  0
  3 21  1  0  0  0  0
  4  3  1  0  0  0  0
  5  4  2  0  0  0  0
  6  1  2  0  0  0  0
  6  5  1  0  0  0  0
  7  6  1  0  0  0  0
  8 15  1  0  0  0  0
  8 10  1  0  0  0  0
  9  8  2  0  0  0  0
 10 11  1  0  0  0  0
 10  1  1  0  0  0  0
 12 20  1  0  0  0  0
 12 17  1  0  0  0  0
 13 12  2  0  0  0  0
 14 13  1  0  0  0  0
 14 15  2  0  0  0  0
 15 16  1  0  0  0  0
 16 17  2  0  0  0  0
 17 18  1  0  0  0  0
 20 19  1  0  0  0  0
 21 22  1  1  0  0  0
 21 23  1  0  0  0  0
 23 25  1  0  0  0  0
 24 23  1  0  0  0  0
 25 26  2  0  0  0  0
 25 34  1  0  0  0  0
 26 27  1  0  0  0  0
 27 28  2  0  0  0  0
 29 28  1  0  0  0  0
 29 30  1  0  0  0  0
 30 35  1  0  0  0  0
 31 30  2  0  0  0  0
 32 31  1  0  0  0  0
 33 34  1  0  0  0  0
 33 32  2  0  0  0  0
 34 29  2  0  0  0  0
 35 37  2  0  0  0  0
 35 36  1  0  0  0  0
 36 38  1  0  0  0  0
 39 36  1  0  0  0  0
M  END
>  <minimizedAffinity>
-8.27085209

$$$$

 OpenBabel10152419543D

 39 42  0  0  1  0  0  0  0  0999 V2000
   -0.7010   -6.0080  -25.1830 C   0  0  0  0  0  0  0  0  0  0  0  0
    0.2490   -5.4570  -26.0490 C   0  0  0  0  0  3  0  0  0  0  0  0
    0.4970   -6.0310  -27.3120 C   0  0  0  0  0  0  0  0  0  0  0  0
   -0.2750   -7.1360  -27.7110 C   0  0  0  0  0  3  0  0  0  0  0  0
   -1.2800   -7.6380  -26.8810 C   0  0  0  0  0  3  0  0  0  0  0  0
   -1.4890   -7.0720  -25.6280 C   0  0  0  0  0  0  0  0  0  0  0  0
   -2.4820   -7.5580  -24.8680 F   0  0  0  0  0  0  0  0  0  0  0  0
   -1.2610   -6.0240  -22.7230 C   0  0  0  0  0  0  0  0  0  0  0  0
   -1.5130   -5.2940  -21.7650 O   0  0  0  0  0  0  0  0  0  0  0  0
   -0.7800   -5.4640  -23.8880 N   0  0  0  0  0  0  0  0  0  0  0  0
   -0.4170   -4.5290  -23.7480 H   0  0  0  0  0  0  0  0  0  0  0  0
   -1.4990  -10.2830  -22.0880 C   0  0  0  0  0  0  0  0  0  0  0  0
   -2.3150   -9.3960  -21.3770 C   0  0  0  0  0  3  0  0  0  0  0  0
   -2.2360   -8.0160  -21.5990 C   0  0  0  0  0  3  0  0  0  0  0  0
   -1.3350   -7.5020  -22.5380 C   0  0  0  0  0  0  0  0  0  0  0  0
   -0.4740   -8.3830  -23.2010 C   0  0  0  0  0  3  0  0  0  0  0  0
   -0.5870   -9.7570  -23.0030 C   0  0  0  0  0  0  0  0  0  0  0  0
    0.2190  -10.5470  -23.7280 F   0  0  0  0  0  0  0  0  0  0  0  0
   -1.4890  -11.9810  -20.4240 C   0  0  0  0  0  1  0  0  0  0  0  0
   -1.6930  -11.6020  -21.7810 O   0  0  0  0  0  0  0  0  0  0  0  0
    1.5710   -5.4710  -28.2420 C   0  0  1  0  0  3  0  0  0  0  0  0
    1.6770   -3.9530  -28.0510 C   0  0  0  0  0  1  0  0  0  0  0  0
    2.8640   -6.0800  -27.9590 N   0  0  0  0  0  0  0  0  0  0  0  0
    3.2060   -5.9420  -27.0120 H   0  0  0  0  0  0  0  0  0  0  0  0
    3.2300   -7.3560  -28.3360 C   0  0  0  0  0  0  0  0  0  0  0  0
    3.7010   -7.3770  -29.6000 N   0  0  0  0  0  0  0  0  0  0  0  0
    4.1590   -8.5410  -30.0900 C   0  0  0  0  0  3  0  0  0  0  0  0
    4.1540   -9.7250  -29.3830 C   0  0  0  0  0  3  0  0  0  0  0  0
    3.5990   -9.7580  -28.0900 C   0  0  0  0  0  0  0  0  0  0  0  0
    3.5090  -10.9430  -27.3020 C   0  0  0  0  0  0  0  0  0  0  0  0
    2.9680  -10.9180  -26.0090 C   0  0  0  0  0  3  0  0  0  0  0  0
    2.4610   -9.7380  -25.4960 C   0  0  0  0  0  3  0  0  0  0  0  0
    2.5220   -8.5760  -26.2620 C   0  0  0  0  0  3  0  0  0  0  0  0
    3.1170   -8.5340  -27.5470 C   0  0  0  0  0  0  0  0  0  0  0  0
    3.9750  -12.2800  -27.7490 C   0  0  0  0  0  0  0  0  0  0  0  0
    3.4750  -12.7580  -28.9250 N   0  0  0  0  0  0  0  0  0  0  0  0
    4.7200  -12.9580  -27.0520 O   0  0  0  0  0  0  0  0  0  0  0  0
    3.7600  -13.6880  -29.2070 H   0  0  0  0  0  0  0  0  0  0  0  0
    2.7790  -12.2740  -29.4740 H   0  0  0  0  0  0  0  0  0  0  0  0
  1 10  1  0  0  0  0
  2  1  2  0  0  0  0
  3  2  1  0  0  0  0
  4  3  2  0  0  0  0
  4  5  1  0  0  0  0
  5  6  2  0  0  0  0
  6  1  1  0  0  0  0
  6  7  1  0  0  0  0
  8 15  1  0  0  0  0
  8  9  2  0  0  0  0
 10 11  1  0  0  0  0
 10  8  1  0  0  0  0
 12 20  1  0  0  0  0
 12 13  1  0  0  0  0
 14 13  2  0  0  0  0
 15 14  1  0  0  0  0
 16 17  1  0  0  0  0
 16 15  2  0  0  0  0
 17 12  2  0  0  0  0
 18 17  1  0  0  0  0
 20 19  1  0  0  0  0
 21 22  1  1  0  0  0
 21 23  1  0  0  0  0
 21  3  1  0  0  0  0
 23 24  1  0  0  0  0
 25 23  1  0  0  0  0
 25 34  1  0  0  0  0
 26 25  2  0  0  0  0
 27 26  1  0  0  0  0
 27 28  2  0  0  0  0
 28 29  1  0  0  0  0
 29 34  2  0  0  0  0
 29 30  1  0  0  0  0
 30 31  2  0  0  0  0
 31 32  1  0  0  0  0
 33 32  2  0  0  0  0
 34 33  1  0  0  0  0
 35 30  1  0  0  0  0
 35 37  2  0  0  0  0
 36 35  1  0  0  0  0
 38 36  1  0  0  0  0
 39 36  1  0  0  0  0
M  END
>  <minimizedAffinity>
-7.34442091

$$$$

 OpenBabel10152419543D

 39 42  0  0  1  0  0  0  0  0999 V2000
    0.5850  -11.4490  -26.1730 C   0  0  0  0  0  0  0  0  0  0  0  0
    1.6870  -10.8430  -26.7840 C   0  0  0  0  0  3  0  0  0  0  0  0
    2.9780  -10.9590  -26.2300 C   0  0  0  0  0  0  0  0  0  0  0  0
    3.1470  -11.7510  -25.0810 C   0  0  0  0  0  3  0  0  0  0  0  0
    2.0620  -12.4240  -24.5160 C   0  0  0  0  0  3  0  0  0  0  0  0
    0.7930  -12.2740  -25.0640 C   0  0  0  0  0  0  0  0  0  0  0  0
   -0.2230  -12.9570  -24.5160 F   0  0  0  0  0  0  0  0  0  0  0  0
   -1.8190  -10.6900  -26.0810 C   0  0  0  0  0  0  0  0  0  0  0  0
   -2.9030  -10.7790  -26.6570 O   0  0  0  0  0  0  0  0  0  0  0  0
   -0.6840  -11.1610  -26.7070 N   0  0  0  0  0  0  0  0  0  0  0  0
   -0.8130  -11.2830  -27.7040 H   0  0  0  0  0  0  0  0  0  0  0  0
   -1.5980   -8.4250  -22.4190 C   0  0  0  0  0  0  0  0  0  0  0  0
   -2.0960   -7.8550  -23.5960 C   0  0  0  0  0  3  0  0  0  0  0  0
   -2.1730   -8.6040  -24.7760 C   0  0  0  0  0  3  0  0  0  0  0  0
   -1.7480   -9.9370  -24.7960 C   0  0  0  0  0  0  0  0  0  0  0  0
   -1.1900  -10.4850  -23.6370 C   0  0  0  0  0  3  0  0  0  0  0  0
   -1.1540   -9.7460  -22.4570 C   0  0  0  0  0  0  0  0  0  0  0  0
   -0.6750  -10.3610  -21.3650 F   0  0  0  0  0  0  0  0  0  0  0  0
   -1.9040   -8.1610  -20.0750 C   0  0  0  0  0  1  0  0  0  0  0  0
   -1.5950   -7.5840  -21.3390 O   0  0  0  0  0  0  0  0  0  0  0  0
    4.1780  -10.2540  -26.8580 C   0  0  1  0  0  3  0  0  0  0  0  0
    4.1260  -10.4070  -28.3830 C   0  0  0  0  0  1  0  0  0  0  0  0
    4.1770   -8.8370  -26.5180 N   0  0  0  0  0  0  0  0  0  0  0  0
    4.7570   -8.2520  -27.1130 H   0  0  0  0  0  0  0  0  0  0  0  0
    3.0490   -8.1040  -26.2120 C   0  0  0  0  0  0  0  0  0  0  0  0
    2.6060   -8.3840  -24.9680 N   0  0  0  0  0  0  0  0  0  0  0  0
    1.5490   -7.7010  -24.4990 C   0  0  0  0  0  3  0  0  0  0  0  0
    0.8730   -6.7430  -25.2260 C   0  0  0  0  0  3  0  0  0  0  0  0
    1.2580   -6.4800  -26.5530 C   0  0  0  0  0  0  0  0  0  0  0  0
    0.5910   -5.5410  -27.3950 C   0  0  0  0  0  0  0  0  0  0  0  0
    1.0290   -5.2980  -28.7040 C   0  0  0  0  0  3  0  0  0  0  0  0
    2.0950   -6.0130  -29.2190 C   0  0  0  0  0  3  0  0  0  0  0  0
    2.7430   -6.9490  -28.4170 C   0  0  0  0  0  3  0  0  0  0  0  0
    2.3810   -7.1850  -27.0680 C   0  0  0  0  0  0  0  0  0  0  0  0
   -0.5890   -4.7410  -26.9820 C   0  0  0  0  0  0  0  0  0  0  0  0
   -1.8120   -5.3420  -27.0530 N   0  0  0  0  0  0  0  0  0  0  0  0
   -0.4780   -3.5640  -26.6620 O   0  0  0  0  0  0  0  0  0  0  0  0
   -2.6200   -4.7820  -26.8120 H   0  0  0  0  0  0  0  0  0  0  0  0
   -1.9540   -6.2760  -27.4110 H   0  0  0  0  0  0  0  0  0  0  0  0
  1  6  1  0  0  0  0
  2  3  1  0  0  0  0
  2  1  2  0  0  0  0
  3  4  2  0  0  0  0
  4  5  1  0  0  0  0
  6  5  2  0  0  0  0
  6  7  1  0  0  0  0
  8 15  1  0  0  0  0
  9  8  2  0  0  0  0
 10  1  1  0  0  0  0
 10  8  1  0  0  0  0
 11 10  1  0  0  0  0
 12 20  1  0  0  0  0
 13 12  2  0  0  0  0
 14 13  1  0  0  0  0
 15 14  2  0  0  0  0
 15 16  1  0  0  0  0
 16 17  2  0  0  0  0
 17 12  1  0  0  0  0
 17 18  1  0  0  0  0
 20 19  1  0  0  0  0
 21 22  1  6  0  0  0
 21 23  1  0  0  0  0
 21  3  1  0  0  0  0
 23 25  1  0  0  0  0
 24 23  1  0  0  0  0
 25 26  1  0  0  0  0
 26 27  2  0  0  0  0
 28 27  1  0  0  0  0
 29 28  2  0  0  0  0
 30 35  1  0  0  0  0
 30 29  1  0  0  0  0
 31 30  2  0  0  0  0
 32 31  1  0  0  0  0
 32 33  2  0  0  0  0
 33 34  1  0  0  0  0
 34 29  1  0  0  0  0
 34 25  2  0  0  0  0
 35 37  2  0  0  0  0
 36 35  1  0  0  0  0
 36 38  1  0  0  0  0
 39 36  1  0  0  0  0
M  END
>  <minimizedAffinity>
-7.24161339

$$$$

 OpenBabel10152419543D

 39 42  0  0  1  0  0  0  0  0999 V2000
   -0.5890  -11.4790  -23.7370 C   0  0  0  0  0  0  0  0  0  0  0  0
   -1.1360  -10.2450  -24.1030 C   0  0  0  0  0  3  0  0  0  0  0  0
   -1.6340   -9.3560  -23.1300 C   0  0  0  0  0  0  0  0  0  0  0  0
   -1.5140   -9.7070  -21.7750 C   0  0  0  0  0  3  0  0  0  0  0  0
   -0.8950  -10.9020  -21.4020 C   0  0  0  0  0  3  0  0  0  0  0  0
   -0.4350  -11.7770  -22.3810 C   0  0  0  0  0  0  0  0  0  0  0  0
    0.1810  -12.9030  -21.9900 F   0  0  0  0  0  0  0  0  0  0  0  0
    0.4870  -12.1450  -25.9190 C   0  0  0  0  0  0  0  0  0  0  0  0
    0.4260  -12.9590  -26.8400 O   0  0  0  0  0  0  0  0  0  0  0  0
   -0.2520  -12.3650  -24.7760 N   0  0  0  0  0  0  0  0  0  0  0  0
   -0.5620  -13.3260  -24.6940 H   0  0  0  0  0  0  0  0  0  0  0  0
    3.4210   -8.9980  -26.2020 C   0  0  0  0  0  0  0  0  0  0  0  0
    3.5180  -10.1530  -26.9850 C   0  0  0  0  0  3  0  0  0  0  0  0
    2.5540  -11.1630  -26.8930 C   0  0  0  0  0  3  0  0  0  0  0  0
    1.4760  -11.0320  -26.0090 C   0  0  0  0  0  0  0  0  0  0  0  0
    1.4160   -9.9080  -25.1800 C   0  0  0  0  0  3  0  0  0  0  0  0
    2.3570   -8.8900  -25.3070 C   0  0  0  0  0  0  0  0  0  0  0  0
    2.1940   -7.8070  -24.5320 F   0  0  0  0  0  0  0  0  0  0  0  0
    4.3850   -7.3540  -27.6250 C   0  0  0  0  0  1  0  0  0  0  0  0
    4.4230   -8.0880  -26.4060 O   0  0  0  0  0  0  0  0  0  0  0  0
   -2.2840   -8.0310  -23.5230 C   0  0  1  0  0  3  0  0  0  0  0  0
   -3.6520   -7.9060  -22.8410 C   0  0  0  0  0  1  0  0  0  0  0  0
   -1.4460   -6.9080  -23.1230 N   0  0  0  0  0  0  0  0  0  0  0  0
   -0.6170   -7.1590  -22.5900 H   0  0  0  0  0  0  0  0  0  0  0  0
   -1.0900   -5.8610  -23.9480 C   0  0  0  0  0  0  0  0  0  0  0  0
   -1.2430   -4.6740  -23.3250 N   0  0  0  0  0  0  0  0  0  0  0  0
   -0.8760   -3.5590  -23.9790 C   0  0  0  0  0  3  0  0  0  0  0  0
   -0.3720   -3.5560  -25.2630 C   0  0  0  0  0  3  0  0  0  0  0  0
   -0.2710   -4.7660  -25.9720 C   0  0  0  0  0  0  0  0  0  0  0  0
    0.1950   -4.8560  -27.3170 C   0  0  0  0  0  0  0  0  0  0  0  0
    0.3000   -6.0910  -27.9710 C   0  0  0  0  0  3  0  0  0  0  0  0
   -0.1030   -7.2480  -27.3290 C   0  0  0  0  0  3  0  0  0  0  0  0
   -0.5810   -7.1750  -26.0230 C   0  0  0  0  0  3  0  0  0  0  0  0
   -0.6450   -5.9610  -25.2950 C   0  0  0  0  0  0  0  0  0  0  0  0
    0.6160   -3.6890  -28.1330 C   0  0  0  0  0  0  0  0  0  0  0  0
    0.1620   -2.4600  -27.7530 N   0  0  0  0  0  0  0  0  0  0  0  0
    1.2840   -3.8330  -29.1500 O   0  0  0  0  0  0  0  0  0  0  0  0
    0.4140   -1.6710  -28.3340 H   0  0  0  0  0  0  0  0  0  0  0  0
   -0.4760   -2.3140  -26.9820 H   0  0  0  0  0  0  0  0  0  0  0  0
  1  6  1  0  0  0  0
  2  1  2  0  0  0  0
  2  3  1  0  0  0  0
  3  4  2  0  0  0  0
  4  5  1  0  0  0  0
  6  7  1  0  0  0  0
  6  5  2  0  0  0  0
  8 10  1  0  0  0  0
  9  8  2  0  0  0  0
 10 11  1  0  0  0  0
 10  1  1  0  0  0  0
 12 17  1  0  0  0  0
 13 14  1  0  0  0  0
 13 12  2  0  0  0  0
 14 15  2  0  0  0  0
 15  8  1  0  0  0  0
 15 16  1  0  0  0  0
 17 16  2  0  0  0  0
 17 18  1  0  0  0  0
 19 20  1  0  0  0  0
 20 12  1  0  0  0  0
 21  3  1  0  0  0  0
 21 23  1  0  0  0  0
 21 22  1  1  0  0  0
 23 24  1  0  0  0  0
 25 26  1  0  0  0  0
 25 23  1  0  0  0  0
 27 26  2  0  0  0  0
 28 27  1  0  0  0  0
 29 34  1  0  0  0  0
 29 28  2  0  0  0  0
 30 29  1  0  0  0  0
 31 32  1  0  0  0  0
 31 30  2  0  0  0  0
 32 33  2  0  0  0  0
 33 34  1  0  0  0  0
 34 25  2  0  0  0  0
 35 36  1  0  0  0  0
 35 30  1  0  0  0  0
 36 39  1  0  0  0  0
 37 35  2  0  0  0  0
 38 36  1  0  0  0  0
M  END
>  <minimizedAffinity>
-7.23826551

$$$$
