
 OpenBabel10152419543D

 39 42  0  0  1  0  0  0  0  0999 V2000
   -0.5890  -11.4790  -23.7370 C   0  0  0  0  0  0  0  0  0  0  0  0
   -1.1360  -10.2450  -24.1030 C   0  0  0  0  0  3  0  0  0  0  0  0
   -1.6340   -9.3560  -23.1300 C   0  0  0  0  0  0  0  0  0  0  0  0
   -1.5140   -9.7070  -21.7750 C   0  0  0  0  0  3  0  0  0  0  0  0
   -0.8950  -10.9020  -21.4020 C   0  0  0  0  0  3  0  0  0  0  0  0
   -0.4350  -11.7770  -22.3810 C   0  0  0  0  0  0  0  0  0  0  0  0
    0.1810  -12.9030  -21.9900 F   0  0  0  0  0  0  0  0  0  0  0  0
    0.4870  -12.1450  -25.9190 C   0  0  0  0  0  0  0  0  0  0  0  0
    0.4260  -12.9590  -26.8400 O   0  0  0  0  0  0  0  0  0  0  0  0
   -0.2520  -12.3650  -24.7760 N   0  0  0  0  0  0  0  0  0  0  0  0
   -0.5620  -13.3260  -24.6940 H   0  0  0  0  0  0  0  0  0  0  0  0
    3.4210   -8.9980  -26.2020 C   0  0  0  0  0  0  0  0  0  0  0  0
    3.5180  -10.1530  -26.9850 C   0  0  0  0  0  3  0  0  0  0  0  0
    2.5540  -11.1630  -26.8930 C   0  0  0  0  0  3  0  0  0  0  0  0
    1.4760  -11.0320  -26.0090 C   0  0  0  0  0  0  0  0  0  0  0  0
    1.4160   -9.9080  -25.1800 C   0  0  0  0  0  3  0  0  0  0  0  0
    2.3570   -8.8900  -25.3070 C   0  0  0  0  0  0  0  0  0  0  0  0
    2.1940   -7.8070  -24.5320 F   0  0  0  0  0  0  0  0  0  0  0  0
    4.3850   -7.3540  -27.6250 C   0  0  0  0  0  1  0  0  0  0  0  0
    4.4230   -8.0880  -26.4060 O   0  0  0  0  0  0  0  0  0  0  0  0
   -2.2840   -8.0310  -23.5230 C   0  0  1  0  0  3  0  0  0  0  0  0
   -3.6520   -7.9060  -22.8410 C   0  0  0  0  0  1  0  0  0  0  0  0
   -1.4460   -6.9080  -23.1230 N   0  0  0  0  0  0  0  0  0  0  0  0
   -0.6170   -7.1590  -22.5900 H   0  0  0  0  0  0  0  0  0  0  0  0
   -1.0900   -5.8610  -23.9480 C   0  0  0  0  0  0  0  0  0  0  0  0
   -1.2430   -4.6740  -23.3250 N   0  0  0  0  0  0  0  0  0  0  0  0
   -0.8760   -3.5590  -23.9790 C   0  0  0  0  0  3  0  0  0  0  0  0
   -0.3720   -3.5560  -25.2630 C   0  0  0  0  0  3  0  0  0  0  0  0
   -0.2710   -4.7660  -25.9720 C   0  0  0  0  0  0  0  0  0  0  0  0
    0.1950   -4.8560  -27.3170 C   0  0  0  0  0  0  0  0  0  0  0  0
    0.3000   -6.0910  -27.9710 C   0  0  0  0  0  3  0  0  0  0  0  0
   -0.1030   -7.2480  -27.3290 C   0  0  0  0  0  3  0  0  0  0  0  0
   -0.5810   -7.1750  -26.0230 C   0  0  0  0  0  3  0  0  0  0  0  0
   -0.6450   -5.9610  -25.2950 C   0  0  0  0  0  0  0  0  0  0  0  0
    0.6160   -3.6890  -28.1330 C   0  0  0  0  0  0  0  0  0  0  0  0
    0.1620   -2.4600  -27.7530 N   0  0  0  0  0  0  0  0  0  0  0  0
    1.2840   -3.8330  -29.1500 O   0  0  0  0  0  0  0  0  0  0  0  0
    0.4140   -1.6710  -28.3340 H   0  0  0  0  0  0  0  0  0  0  0  0
   -0.4760   -2.3140  -26.9820 H   0  0  0  0  0  0  0  0  0  0  0  0
  1  6  1  0  0  0  0
  2  1  2  0  0  0  0
  2  3  1  0  0  0  0
  3  4  2  0  0  0  0
  4  5  1  0  0  0  0
  6  7  1  0  0  0  0
  6  5  2  0  0  0  0
  8 10  1  0  0  0  0
  9  8  2  0  0  0  0
 10 11  1  0  0  0  0
 10  1  1  0  0  0  0
 12 17  1  0  0  0  0
 13 14  1  0  0  0  0
 13 12  2  0  0  0  0
 14 15  2  0  0  0  0
 15  8  1  0  0  0  0
 15 16  1  0  0  0  0
 17 16  2  0  0  0  0
 17 18  1  0  0  0  0
 19 20  1  0  0  0  0
 20 12  1  0  0  0  0
 21  3  1  0  0  0  0
 21 23  1  0  0  0  0
 21 22  1  1  0  0  0
 23 24  1  0  0  0  0
 25 26  1  0  0  0  0
 25 23  1  0  0  0  0
 27 26  2  0  0  0  0
 28 27  1  0  0  0  0
 29 34  1  0  0  0  0
 29 28  2  0  0  0  0
 30 29  1  0  0  0  0
 31 32  1  0  0  0  0
 31 30  2  0  0  0  0
 32 33  2  0  0  0  0
 33 34  1  0  0  0  0
 34 25  2  0  0  0  0
 35 36  1  0  0  0  0
 35 30  1  0  0  0  0
 36 39  1  0  0  0  0
 37 35  2  0  0  0  0
 38 36  1  0  0  0  0
M  END
>  <minimizedAffinity>
-7.23826551

$$$$
