
 OpenBabel10152419543D

 39 42  0  0  1  0  0  0  0  0999 V2000
    0.5850  -11.4490  -26.1730 C   0  0  0  0  0  0  0  0  0  0  0  0
    1.6870  -10.8430  -26.7840 C   0  0  0  0  0  3  0  0  0  0  0  0
    2.9780  -10.9590  -26.2300 C   0  0  0  0  0  0  0  0  0  0  0  0
    3.1470  -11.7510  -25.0810 C   0  0  0  0  0  3  0  0  0  0  0  0
    2.0620  -12.4240  -24.5160 C   0  0  0  0  0  3  0  0  0  0  0  0
    0.7930  -12.2740  -25.0640 C   0  0  0  0  0  0  0  0  0  0  0  0
   -0.2230  -12.9570  -24.5160 F   0  0  0  0  0  0  0  0  0  0  0  0
   -1.8190  -10.6900  -26.0810 C   0  0  0  0  0  0  0  0  0  0  0  0
   -2.9030  -10.7790  -26.6570 O   0  0  0  0  0  0  0  0  0  0  0  0
   -0.6840  -11.1610  -26.7070 N   0  0  0  0  0  0  0  0  0  0  0  0
   -0.8130  -11.2830  -27.7040 H   0  0  0  0  0  0  0  0  0  0  0  0
   -1.5980   -8.4250  -22.4190 C   0  0  0  0  0  0  0  0  0  0  0  0
   -2.0960   -7.8550  -23.5960 C   0  0  0  0  0  3  0  0  0  0  0  0
   -2.1730   -8.6040  -24.7760 C   0  0  0  0  0  3  0  0  0  0  0  0
   -1.7480   -9.9370  -24.7960 C   0  0  0  0  0  0  0  0  0  0  0  0
   -1.1900  -10.4850  -23.6370 C   0  0  0  0  0  3  0  0  0  0  0  0
   -1.1540   -9.7460  -22.4570 C   0  0  0  0  0  0  0  0  0  0  0  0
   -0.6750  -10.3610  -21.3650 F   0  0  0  0  0  0  0  0  0  0  0  0
   -1.9040   -8.1610  -20.0750 C   0  0  0  0  0  1  0  0  0  0  0  0
   -1.5950   -7.5840  -21.3390 O   0  0  0  0  0  0  0  0  0  0  0  0
    4.1780  -10.2540  -26.8580 C   0  0  1  0  0  3  0  0  0  0  0  0
    4.1260  -10.4070  -28.3830 C   0  0  0  0  0  1  0  0  0  0  0  0
    4.1770   -8.8370  -26.5180 N   0  0  0  0  0  0  0  0  0  0  0  0
    4.7570   -8.2520  -27.1130 H   0  0  0  0  0  0  0  0  0  0  0  0
    3.0490   -8.1040  -26.2120 C   0  0  0  0  0  0  0  0  0  0  0  0
    2.6060   -8.3840  -24.9680 N   0  0  0  0  0  0  0  0  0  0  0  0
    1.5490   -7.7010  -24.4990 C   0  0  0  0  0  3  0  0  0  0  0  0
    0.8730   -6.7430  -25.2260 C   0  0  0  0  0  3  0  0  0  0  0  0
    1.2580   -6.4800  -26.5530 C   0  0  0  0  0  0  0  0  0  0  0  0
    0.5910   -5.5410  -27.3950 C   0  0  0  0  0  0  0  0  0  0  0  0
    1.0290   -5.2980  -28.7040 C   0  0  0  0  0  3  0  0  0  0  0  0
    2.0950   -6.0130  -29.2190 C   0  0  0  0  0  3  0  0  0  0  0  0
    2.7430   -6.9490  -28.4170 C   0  0  0  0  0  3  0  0  0  0  0  0
    2.3810   -7.1850  -27.0680 C   0  0  0  0  0  0  0  0  0  0  0  0
   -0.5890   -4.7410  -26.9820 C   0  0  0  0  0  0  0  0  0  0  0  0
   -1.8120   -5.3420  -27.0530 N   0  0  0  0  0  0  0  0  0  0  0  0
   -0.4780   -3.5640  -26.6620 O   0  0  0  0  0  0  0  0  0  0  0  0
   -2.6200   -4.7820  -26.8120 H   0  0  0  0  0  0  0  0  0  0  0  0
   -1.9540   -6.2760  -27.4110 H   0  0  0  0  0  0  0  0  0  0  0  0
  1  6  1  0  0  0  0
  2  3  1  0  0  0  0
  2  1  2  0  0  0  0
  3  4  2  0  0  0  0
  4  5  1  0  0  0  0
  6  5  2  0  0  0  0
  6  7  1  0  0  0  0
  8 15  1  0  0  0  0
  9  8  2  0  0  0  0
 10  1  1  0  0  0  0
 10  8  1  0  0  0  0
 11 10  1  0  0  0  0
 12 20  1  0  0  0  0
 13 12  2  0  0  0  0
 14 13  1  0  0  0  0
 15 14  2  0  0  0  0
 15 16  1  0  0  0  0
 16 17  2  0  0  0  0
 17 12  1  0  0  0  0
 17 18  1  0  0  0  0
 20 19  1  0  0  0  0
 21 22  1  6  0  0  0
 21 23  1  0  0  0  0
 21  3  1  0  0  0  0
 23 25  1  0  0  0  0
 24 23  1  0  0  0  0
 25 26  1  0  0  0  0
 26 27  2  0  0  0  0
 28 27  1  0  0  0  0
 29 28  2  0  0  0  0
 30 35  1  0  0  0  0
 30 29  1  0  0  0  0
 31 30  2  0  0  0  0
 32 31  1  0  0  0  0
 32 33  2  0  0  0  0
 33 34  1  0  0  0  0
 34 29  1  0  0  0  0
 34 25  2  0  0  0  0
 35 37  2  0  0  0  0
 36 35  1  0  0  0  0
 36 38  1  0  0  0  0
 39 36  1  0  0  0  0
M  END
>  <minimizedAffinity>
-7.24161339

$$$$
