
 OpenBabel10152419543D

 39 42  0  0  1  0  0  0  0  0999 V2000
    0.7330  -12.3980  -24.3340 C   0  0  0  0  0  0  0  0  0  0  0  0
    2.0980  -12.1210  -24.4590 C   0  0  0  0  0  3  0  0  0  0  0  0
    2.6680  -11.8440  -25.7180 C   0  0  0  0  0  0  0  0  0  0  0  0
    1.8240  -11.7890  -26.8400 C   0  0  0  0  0  3  0  0  0  0  0  0
    0.4480  -11.9840  -26.7060 C   0  0  0  0  0  3  0  0  0  0  0  0
   -0.0890  -12.2830  -25.4580 C   0  0  0  0  0  0  0  0  0  0  0  0
   -1.4180  -12.4350  -25.3560 F   0  0  0  0  0  0  0  0  0  0  0  0
   -0.3350  -12.0770  -22.0710 C   0  0  0  0  0  0  0  0  0  0  0  0
   -0.3960  -12.5460  -20.9340 O   0  0  0  0  0  0  0  0  0  0  0  0
    0.2750  -12.8080  -23.0690 N   0  0  0  0  0  0  0  0  0  0  0  0
    0.3680  -13.7880  -22.8300 H   0  0  0  0  0  0  0  0  0  0  0  0
   -2.5040   -8.4330  -22.8510 C   0  0  0  0  0  0  0  0  0  0  0  0
   -2.5940   -9.0800  -21.6140 C   0  0  0  0  0  3  0  0  0  0  0  0
   -1.8760  -10.2570  -21.3680 C   0  0  0  0  0  3  0  0  0  0  0  0
   -1.0590  -10.8060  -22.3620 C   0  0  0  0  0  0  0  0  0  0  0  0
   -1.0210  -10.1950  -23.6200 C   0  0  0  0  0  3  0  0  0  0  0  0
   -1.7060   -9.0040  -23.8430 C   0  0  0  0  0  0  0  0  0  0  0  0
   -1.5640   -8.4330  -25.0490 F   0  0  0  0  0  0  0  0  0  0  0  0
   -4.6420   -7.4440  -23.1760 C   0  0  0  0  0  1  0  0  0  0  0  0
   -3.2460   -7.2870  -22.9470 O   0  0  0  0  0  0  0  0  0  0  0  0
    4.1670  -11.5960  -25.8740 C   0  0  1  0  0  3  0  0  0  0  0  0
    4.7140  -12.4550  -27.0210 C   0  0  0  0  0  1  0  0  0  0  0  0
    4.4290  -10.1920  -26.1590 N   0  0  0  0  0  0  0  0  0  0  0  0
    5.0620  -10.0230  -26.9360 H   0  0  0  0  0  0  0  0  0  0  0  0
    3.4640   -9.2070  -26.2050 C   0  0  0  0  0  0  0  0  0  0  0  0
    2.7420   -9.1750  -25.0650 N   0  0  0  0  0  0  0  0  0  0  0  0
    1.8030   -8.2250  -24.9310 C   0  0  0  0  0  3  0  0  0  0  0  0
    1.5160   -7.2900  -25.9050 C   0  0  0  0  0  3  0  0  0  0  0  0
    2.1950   -7.3390  -27.1360 C   0  0  0  0  0  0  0  0  0  0  0  0
    1.9350   -6.4450  -28.2150 C   0  0  0  0  0  0  0  0  0  0  0  0
    2.6560   -6.5210  -29.4140 C   0  0  0  0  0  3  0  0  0  0  0  0
    3.6050   -7.5120  -29.5870 C   0  0  0  0  0  3  0  0  0  0  0  0
    3.8550   -8.4080  -28.5500 C   0  0  0  0  0  3  0  0  0  0  0  0
    3.2010   -8.3330  -27.2960 C   0  0  0  0  0  0  0  0  0  0  0  0
    0.9160   -5.3660  -28.1780 C   0  0  0  0  0  0  0  0  0  0  0  0
    1.3610   -4.0780  -28.2510 N   0  0  0  0  0  0  0  0  0  0  0  0
   -0.2710   -5.6190  -28.0110 O   0  0  0  0  0  0  0  0  0  0  0  0
    0.6690   -3.3420  -28.1820 H   0  0  0  0  0  0  0  0  0  0  0  0
    2.3390   -3.8270  -28.2830 H   0  0  0  0  0  0  0  0  0  0  0  0
  1 10  1  0  0  0  0
  2  1  1  0  0  0  0
  3  2  2  0  0  0  0
  4  5  2  0  0  0  0
  4  3  1  0  0  0  0
  5  6  1  0  0  0  0
  6  7  1  0  0  0  0
  6  1  2  0  0  0  0
  8  9  2  0  0  0  0
 10 11  1  0  0  0  0
 10  8  1  0  0  0  0
 12 13  1  0  0  0  0
 13 14  2  0  0  0  0
 15  8  1  0  0  0  0
 15 14  1  0  0  0  0
 16 15  2  0  0  0  0
 17 16  1  0  0  0  0
 17 12  2  0  0  0  0
 18 17  1  0  0  0  0
 19 20  1  0  0  0  0
 20 12  1  0  0  0  0
 21 22  1  6  0  0  0
 21  3  1  0  0  0  0
 23 21  1  0  0  0  0
 24 23  1  0  0  0  0
 25 23  1  0  0  0  0
 25 26  1  0  0  0  0
 26 27  2  0  0  0  0
 28 27  1  0  0  0  0
 29 28  2  0  0  0  0
 30 35  1  0  0  0  0
 30 29  1  0  0  0  0
 31 30  2  0  0  0  0
 32 31  1  0  0  0  0
 32 33  2  0  0  0  0
 33 34  1  0  0  0  0
 34 29  1  0  0  0  0
 34 25  2  0  0  0  0
 35 37  2  0  0  0  0
 36 38  1  0  0  0  0
 36 35  1  0  0  0  0
 39 36  1  0  0  0  0
M  END
>  <minimizedAffinity>
-8.78331661

$$$$
