REMARK  Name = 
REMARK  9 active torsions:
REMARK  status: ('A' for Active; 'I' for Inactive)
REMARK    1  A    between atoms: C_1  and  O_2
REMARK    2  A    between atoms: O_2  and  C_3
REMARK    3  A    between atoms: C_6  and  C_7
REMARK    4  A    between atoms: N_9  and  C_10
REMARK    5  A    between atoms: C_12  and  C_13
REMARK    6  A    between atoms: C_13  and  C_14
REMARK    7  A    between atoms: C_13  and  N_15
REMARK    8  A    between atoms: N_15  and  C_16
REMARK    9  A    between atoms: C_21  and  C_22
REMARK                            x       y       z     vdW  Elec       q    Type
REMARK                         _______ _______ _______ _____ _____    ______ ____
ROOT
ATOM      1  C   UNL     1       4.543  -3.596   4.389  0.00  0.00    +0.070 A 
ATOM      2  C   UNL     1       5.527  -4.436   3.859  0.00  0.00    +0.031 A 
ATOM      3  C   UNL     1       6.660  -3.905   3.210  0.00  0.00    -0.026 A 
ATOM      4  C   UNL     1       6.813  -2.509   3.160  0.00  0.00    +0.008 A 
ATOM      5  C   UNL     1       5.873  -1.669   3.760  0.00  0.00    +0.040 A 
ATOM      6  C   UNL     1       4.749  -2.214   4.372  0.00  0.00    +0.145 A 
ATOM      7  F   UNL     1       3.880  -1.382   4.965  0.00  0.00    -0.204 F 
ENDROOT
BRANCH   1  10
ATOM      8  C   UNL     1       2.073  -3.761   4.874  0.00  0.00    +0.248 C 
ATOM      9  O   UNL     1       1.247  -4.299   5.611  0.00  0.00    -0.270 OA
ATOM     10  N   UNL     1       3.378  -4.207   4.887  0.00  0.00    -0.279 N 
ATOM     11  H   UNL     1       3.470  -5.126   5.303  0.00  0.00    +0.155 HD
BRANCH   8  15
ATOM     12  C   UNL     1       0.608  -0.861   2.039  0.00  0.00    +0.155 A 
ATOM     13  C   UNL     1      -0.014  -1.042   3.279  0.00  0.00    +0.049 A 
ATOM     14  C   UNL     1       0.477  -1.979   4.196  0.00  0.00    +0.017 A 
ATOM     15  C   UNL     1       1.600  -2.753   3.882  0.00  0.00    +0.040 A 
ATOM     16  C   UNL     1       2.181  -2.618   2.617  0.00  0.00    +0.055 A 
ATOM     17  C   UNL     1       1.711  -1.656   1.727  0.00  0.00    +0.165 A 
ATOM     18  F   UNL     1       2.364  -1.530   0.562  0.00  0.00    -0.202 F 
BRANCH  12  20
ATOM     19  C   UNL     1       0.570   0.260  -0.058  0.00  0.00    +0.277 C 
ATOM     20  O   UNL     1       0.032   0.097   1.250  0.00  0.00    -0.492 OA
ENDBRANCH  12  20
ENDBRANCH   8  15
ENDBRANCH   1  10
BRANCH   3  21
ATOM     21  C   UNL     1       7.712  -4.814   2.578  0.00  0.00    +0.099 C 
ATOM     22  C   UNL     1       8.308  -5.735   3.650  0.00  0.00    +0.033 C 
BRANCH  21  23
ATOM     23  N   UNL     1       7.122  -5.627   1.523  0.00  0.00    -0.322 N 
ATOM     24  H   UNL     1       6.120  -5.775   1.604  0.00  0.00    +0.148 HD
BRANCH  23  25
ATOM     25  C   UNL     1       7.400  -5.490   0.178  0.00  0.00    +0.127 A 
ATOM     26  N   UNL     1       6.268  -5.468  -0.556  0.00  0.00    -0.240 NA
ATOM     27  C   UNL     1       6.371  -5.275  -1.881  0.00  0.00    +0.113 A 
ATOM     28  C   UNL     1       7.573  -5.121  -2.541  0.00  0.00    +0.029 A 
ATOM     29  C   UNL     1       8.777  -5.215  -1.820  0.00  0.00    -0.001 A 
ATOM     30  C   UNL     1      10.066  -5.114  -2.422  0.00  0.00    +0.044 A 
ATOM     31  C   UNL     1      11.236  -5.191  -1.655  0.00  0.00    +0.013 A 
ATOM     32  C   UNL     1      11.155  -5.422  -0.294  0.00  0.00    +0.001 A 
ATOM     33  C   UNL     1       9.904  -5.545   0.306  0.00  0.00    +0.012 A 
ATOM     34  C   UNL     1       8.691  -5.410  -0.413  0.00  0.00    +0.023 A 
BRANCH  30  35
ATOM     35  C   UNL     1      10.294  -4.910  -3.875  0.00  0.00    +0.242 C 
ATOM     36  N   UNL     1       9.670  -5.766  -4.735  0.00  0.00    -0.325 N 
ATOM     37  O   UNL     1      11.071  -4.055  -4.282  0.00  0.00    -0.270 OA
ATOM     38  H   UNL     1       9.860  -5.653  -5.723  0.00  0.00    +0.145 HD
ATOM     39  H   UNL     1       9.106  -6.548  -4.433  0.00  0.00    +0.145 HD
ENDBRANCH  30  35
ENDBRANCH  23  25
ENDBRANCH  21  23
ENDBRANCH   3  21
TORSDOF 7
