
 OpenBabel10152418533D

 32 35  0  0  1  0  0  0  0  0999 V2000
    6.1090  -11.4140    9.4460 C   0  0  2  0  0  0  0  0  0  0  0  0
    6.1460  -10.1220    8.6060 C   0  0  0  0  0  2  0  0  0  0  0  0
    7.5010   -9.7760    7.9820 C   0  0  0  0  0  2  0  0  0  0  0  0
    8.6990   -9.9040    8.9270 C   0  0  2  0  0  3  0  0  0  0  0  0
    8.6690  -11.1860    9.7630 C   0  0  0  0  0  2  0  0  0  0  0  0
    7.3190  -11.4950   10.4070 C   0  0  0  0  0  2  0  0  0  0  0  0
    6.0810  -12.5850    7.3550 O   0  0  0  0  0  0  0  0  0  0  0  0
    6.1520  -12.7250    8.6120 C   0  0  0  0  0  0  0  0  0  0  0  0
    6.2580  -13.7990    9.2650 O   0  0  0  0  0  1  0  0  0  0  0  0
    4.8140  -11.4500   10.3160 C   0  0  0  0  0  2  0  0  0  0  0  0
    4.7670  -12.4670   11.4380 C   0  0  0  0  0  0  0  0  0  0  0  0
    3.5530  -12.8600   11.9890 C   0  0  0  0  0  3  0  0  0  0  0  0
    3.5580  -13.7860   13.0210 C   0  0  0  0  0  3  0  0  0  0  0  0
    4.7700  -14.3140   13.4480 C   0  0  0  0  0  3  0  0  0  0  0  0
    5.9580  -13.9190   12.8260 C   0  0  0  0  0  0  0  0  0  0  0  0
    5.9570  -12.9960   11.8430 N   0  0  0  0  0  0  0  0  0  0  0  0
    7.1390  -14.5790   13.2220 N   0  0  0  0  0  0  0  0  0  0  0  0
    8.3670  -14.0280   13.3210 C   0  0  0  0  0  0  0  0  0  0  0  0
    8.6890  -12.8360   13.7790 N   0  0  0  0  0  0  0  0  0  0  0  0
   10.0560  -12.6570   13.7510 C   0  0  0  0  0  3  0  0  0  0  0  0
   10.7890  -13.7200   13.2800 C   0  0  0  0  0  3  0  0  0  0  0  0
    9.7360  -15.0100   12.8990 S   0  0  0  0  0  0  0  0  0  0  0  0
    7.1000  -15.5620   13.0040 H   0  0  0  0  0  0  0  0  0  0  0  0
    9.0680   -8.7120    9.6630 O   0  0  0  0  0  0  0  0  0  0  0  0
    8.9870   -8.7710   11.0220 C   0  0  0  0  0  0  0  0  0  0  0  0
   10.1570   -8.8880   11.7710 C   0  0  0  0  0  3  0  0  0  0  0  0
   10.0950   -8.9250   13.1640 C   0  0  0  0  0  3  0  0  0  0  0  0
    8.8570   -8.9010   13.8090 C   0  0  0  0  0  3  0  0  0  0  0  0
    7.6840   -8.8760   13.0540 C   0  0  0  0  0  0  0  0  0  0  0  0
    6.1640   -8.8930   13.8640 Cl  0  0  0  0  0  0  0  0  0  0  0  0
    7.7500   -8.8360   11.6620 C   0  0  0  0  0  0  0  0  0  0  0  0
    6.6210   -8.8380   10.9340 F   0  0  0  0  0  0  0  0  0  0  0  0
  1 10  1  1  0  0  0
  1  6  1  0  0  0  0
  2  1  1  0  0  0  0
  3  2  1  0  0  0  0
  3  4  1  0  0  0  0
  4 24  1  1  0  0  0
  4  5  1  0  0  0  0
  5  6  1  0  0  0  0
  7  8  2  0  0  0  0
  8  9  1  0  0  0  0
  8  1  1  0  0  0  0
 10 11  1  0  0  0  0
 11 16  2  0  0  0  0
 11 12  1  0  0  0  0
 12 13  2  0  0  0  0
 13 14  1  0  0  0  0
 15 17  1  0  0  0  0
 15 14  2  0  0  0  0
 16 15  1  0  0  0  0
 17 18  1  0  0  0  0
 18 19  2  0  0  0  0
 20 19  1  0  0  0  0
 21 20  2  0  0  0  0
 22 21  1  0  0  0  0
 22 18  1  0  0  0  0
 23 17  1  0  0  0  0
 24 25  1  0  0  0  0
 25 31  2  0  0  0  0
 25 26  1  0  0  0  0
 26 27  2  0  0  0  0
 27 28  1  0  0  0  0
 29 28  2  0  0  0  0
 29 30  1  0  0  0  0
 31 29  1  0  0  0  0
 32 31  1  0  0  0  0
M  END
>  <minimizedAffinity>
11.600832

$$$$
