REMARK  Name = 
REMARK  6 active torsions:
REMARK  status: ('A' for Active; 'I' for Inactive)
REMARK    1  A    between atoms: C_2  and  C_4
REMARK    2  A    between atoms: C_4  and  C_5
REMARK    3  A    between atoms: C_5  and  C_6
REMARK    4  A    between atoms: C_10  and  N_11
REMARK    5  A    between atoms: C_20  and  O_21
REMARK    6  A    between atoms: O_21  and  C_22
REMARK                            x       y       z     vdW  Elec       q    Type
REMARK                         _______ _______ _______ _____ _____    ______ ____
ROOT
ATOM      1  C   UNL     1       3.423   0.788   1.107  0.00  0.00    +0.016 C 
ATOM      2  C   UNL     1       2.708   2.148   1.222  0.00  0.00    +0.017 C 
ATOM      3  C   UNL     1       2.810   2.838   2.586  0.00  0.00    +0.045 C 
ATOM      4  C   UNL     1       2.553   1.928   3.790  0.00  0.00    +0.174 C 
ATOM      5  C   UNL     1       3.262   0.576   3.683  0.00  0.00    +0.045 C 
ATOM      6  C   UNL     1       3.118  -0.113   2.327  0.00  0.00    +0.017 C 
ENDROOT
BRANCH   1   8
ATOM      7  O   UNL     1       5.579  -0.193   0.741  0.00  0.00    -0.549 OA
ATOM      8  C   UNL     1       4.973   0.880   1.035  0.00  0.00    +0.048 C 
ATOM      9  O   UNL     1       5.477   2.012   1.270  0.00  0.00    -0.549 OA
ENDBRANCH   1   8
BRANCH   1  10
ATOM     10  C   UNL     1       2.936   0.033  -0.169  0.00  0.00    +0.068 C 
BRANCH  10  11
ATOM     11  C   UNL     1       2.951   0.804  -1.473  0.00  0.00    +0.044 A 
ATOM     12  C   UNL     1       4.152   1.167  -2.069  0.00  0.00    +0.023 A 
ATOM     13  C   UNL     1       4.118   1.881  -3.257  0.00  0.00    +0.005 A 
ATOM     14  C   UNL     1       2.888   2.182  -3.829  0.00  0.00    +0.044 A 
ATOM     15  C   UNL     1       1.711   1.751  -3.211  0.00  0.00    +0.125 A 
ATOM     16  N   UNL     1       1.742   1.083  -2.040  0.00  0.00    -0.237 NA
BRANCH  15  17
ATOM     17  N   UNL     1       0.503   1.982  -3.900  0.00  0.00    -0.279 N 
ATOM     18  C   UNL     1      -0.742   1.873  -3.389  0.00  0.00    +0.163 A 
ATOM     19  N   UNL     1      -1.166   2.237  -2.197  0.00  0.00    -0.233 NA
ATOM     20  C   UNL     1      -2.517   1.994  -2.066  0.00  0.00    +0.120 A 
ATOM     21  C   UNL     1      -3.136   1.451  -3.167  0.00  0.00    +0.068 A 
ATOM     22  S   UNL     1      -1.999   1.279  -4.430  0.00  0.00    -0.061 S 
ATOM     23  H   UNL     1       0.605   1.805  -4.887  0.00  0.00    +0.155 HD
ENDBRANCH  15  17
ENDBRANCH  10  11
ENDBRANCH   1  10
BRANCH   4  24
ATOM     24  O   UNL     1       1.185   1.856   4.261  0.00  0.00    -0.486 OA
BRANCH  24  25
ATOM     25  C   UNL     1       0.245   1.419   3.377  0.00  0.00    +0.157 A 
ATOM     26  C   UNL     1      -0.417   2.345   2.571  0.00  0.00    +0.049 A 
ATOM     27  C   UNL     1      -1.365   1.913   1.644  0.00  0.00    +0.005 A 
ATOM     28  C   UNL     1      -1.694   0.559   1.559  0.00  0.00    +0.023 A 
ATOM     29  C   UNL     1      -1.097  -0.353   2.430  0.00  0.00    +0.080 A 
ATOM     30 CL   UNL     1      -1.547  -2.014   2.344  0.00  0.00    -0.080 Cl
ATOM     31  C   UNL     1      -0.147   0.081   3.353  0.00  0.00    +0.183 A 
ATOM     32  F   UNL     1       0.409  -0.792   4.209  0.00  0.00    -0.200 F 
ENDBRANCH  24  25
ENDBRANCH   4  24
TORSDOF 6
