
 OpenBabel10152419313D

 39 42  0  0  1  0  0  0  0  0999 V2000
    2.3330  -11.7600  -25.7390 C   0  0  0  0  0  0  0  0  0  0  0  0
    1.3660  -11.4580  -26.7120 C   0  0  0  0  0  3  0  0  0  0  0  0
    0.0090  -11.6020  -26.4350 C   0  0  0  0  0  3  0  0  0  0  0  0
   -0.4030  -12.0830  -25.1920 C   0  0  0  0  0  3  0  0  0  0  0  0
    0.5380  -12.4190  -24.2180 C   0  0  0  0  0  0  0  0  0  0  0  0
    1.8930  -12.1800  -24.4700 C   0  0  0  0  0  3  0  0  0  0  0  0
    0.2010  -12.9590  -22.9640 N   0  0  0  0  0  0  0  0  0  0  0  0
   -0.3370  -12.3790  -21.8380 C   0  0  0  0  0  0  0  0  0  0  0  0
   -0.1750  -12.9520  -20.7590 O   0  0  0  0  0  0  0  0  0  0  0  0
    0.4040  -13.9410  -22.8220 H   0  0  0  0  0  0  0  0  0  0  0  0
   -1.1280  -11.1800  -21.9290 C   0  0  0  0  0  0  0  0  0  0  0  0
   -1.2280  -10.1780  -22.8750 C   0  0  0  0  0  3  0  0  0  0  0  0
   -2.1600   -9.2430  -22.3570 C   0  0  0  0  0  0  0  0  0  0  0  0
   -2.6590   -9.6720  -21.1880 N   0  0  0  0  0  0  0  0  0  0  0  0
   -2.0790  -10.8680  -20.9990 N   0  0  0  0  0  0  0  0  0  0  0  0
   -2.3450  -11.4190  -20.1880 H   0  0  0  0  0  0  0  0  0  0  0  0
   -2.5640   -7.8880  -22.9180 C   0  0  0  0  0  0  0  0  0  0  0  0
   -2.4160   -7.8580  -24.4540 C   0  0  0  0  0  1  0  0  0  0  0  0
   -4.0360   -7.6050  -22.5550 C   0  0  0  0  0  1  0  0  0  0  0  0
   -1.6960   -6.7510  -22.3410 C   0  0  0  0  0  1  0  0  0  0  0  0
    4.0320  -12.1640  -27.5170 C   0  0  0  0  0  1  0  0  0  0  0  0
    3.8060  -11.6270  -26.0990 C   0  0  1  0  0  3  0  0  0  0  0  0
    4.3400  -10.2710  -26.0220 N   0  0  0  0  0  0  0  0  0  0  0  0
    5.3390  -10.2070  -25.8540 H   0  0  0  0  0  0  0  0  0  0  0  0
    3.9290   -9.1240  -26.6500 C   0  0  0  0  0  0  0  0  0  0  0  0
    4.6570   -8.9170  -27.7610 N   0  0  0  0  0  0  0  0  0  0  0  0
    4.2700   -7.9310  -28.5620 C   0  0  0  0  0  3  0  0  0  0  0  0
    3.2120   -7.1410  -28.3720 N   0  0  0  0  0  0  0  0  0  0  0  0
    2.4990   -7.2990  -27.2350 C   0  0  0  0  0  0  0  0  0  0  0  0
    1.3760   -6.4910  -26.9540 C   0  0  0  0  0  0  0  0  0  0  0  0
    0.6670   -6.6170  -25.7460 C   0  0  0  0  0  3  0  0  0  0  0  0
    1.0640   -7.5370  -24.7920 C   0  0  0  0  0  3  0  0  0  0  0  0
    2.1530   -8.3550  -25.0610 C   0  0  0  0  0  3  0  0  0  0  0  0
    2.8610   -8.2810  -26.2880 C   0  0  0  0  0  0  0  0  0  0  0  0
    0.8470   -5.4570  -27.9010 C   0  0  0  0  0  0  0  0  0  0  0  0
    1.7330   -4.6390  -28.5350 N   0  0  0  0  0  0  0  0  0  0  0  0
   -0.3540   -5.3420  -28.1180 O   0  0  0  0  0  0  0  0  0  0  0  0
    1.3880   -3.9450  -29.1820 H   0  0  0  0  0  0  0  0  0  0  0  0
    2.7320   -4.7140  -28.3590 H   0  0  0  0  0  0  0  0  0  0  0  0
  1  6  1  0  0  0  0
  2  3  1  0  0  0  0
  2  1  2  0  0  0  0
  3  4  2  0  0  0  0
  4  5  1  0  0  0  0
  5  7  1  0  0  0  0
  6  5  2  0  0  0  0
  7 10  1  0  0  0  0
  7  8  1  0  0  0  0
  8  9  2  0  0  0  0
 11  8  1  0  0  0  0
 11 15  1  0  0  0  0
 12 13  1  0  0  0  0
 12 11  2  0  0  0  0
 13 14  2  0  0  0  0
 14 15  1  0  0  0  0
 15 16  1  0  0  0  0
 17 19  1  0  0  0  0
 17 13  1  0  0  0  0
 17 20  1  0  0  0  0
 18 17  1  0  0  0  0
 22 21  1  6  0  0  0
 22 23  1  0  0  0  0
 22  1  1  0  0  0  0
 23 24  1  0  0  0  0
 25 34  1  0  0  0  0
 25 23  1  0  0  0  0
 26 25  2  0  0  0  0
 27 28  2  0  0  0  0
 27 26  1  0  0  0  0
 28 29  1  0  0  0  0
 29 30  2  0  0  0  0
 29 34  1  0  0  0  0
 30 31  1  0  0  0  0
 31 32  2  0  0  0  0
 33 32  1  0  0  0  0
 34 33  2  0  0  0  0
 35 30  1  0  0  0  0
 36 39  1  0  0  0  0
 36 35  1  0  0  0  0
 37 35  2  0  0  0  0
 38 36  1  0  0  0  0
M  END
>  <minimizedAffinity>
-9.91001606

$$$$
