
 OpenBabel10152419313D

 39 42  0  0  1  0  0  0  0  0999 V2000
    2.3330  -11.7600  -25.7390 C   0  0  0  0  0  0  0  0  0  0  0  0
    1.3660  -11.4580  -26.7120 C   0  0  0  0  0  3  0  0  0  0  0  0
    0.0090  -11.6020  -26.4350 C   0  0  0  0  0  3  0  0  0  0  0  0
   -0.4030  -12.0830  -25.1920 C   0  0  0  0  0  3  0  0  0  0  0  0
    0.5380  -12.4190  -24.2180 C   0  0  0  0  0  0  0  0  0  0  0  0
    1.8930  -12.1800  -24.4700 C   0  0  0  0  0  3  0  0  0  0  0  0
    0.2010  -12.9590  -22.9640 N   0  0  0  0  0  0  0  0  0  0  0  0
   -0.3370  -12.3790  -21.8380 C   0  0  0  0  0  0  0  0  0  0  0  0
   -0.1750  -12.9520  -20.7590 O   0  0  0  0  0  0  0  0  0  0  0  0
    0.4040  -13.9410  -22.8220 H   0  0  0  0  0  0  0  0  0  0  0  0
   -1.1280  -11.1800  -21.9290 C   0  0  0  0  0  0  0  0  0  0  0  0
   -1.2280  -10.1780  -22.8750 C   0  0  0  0  0  3  0  0  0  0  0  0
   -2.1600   -9.2430  -22.3570 C   0  0  0  0  0  0  0  0  0  0  0  0
   -2.6590   -9.6720  -21.1880 N   0  0  0  0  0  0  0  0  0  0  0  0
   -2.0790  -10.8680  -20.9990 N   0  0  0  0  0  0  0  0  0  0  0  0
   -2.3450  -11.4190  -20.1880 H   0  0  0  0  0  0  0  0  0  0  0  0
   -2.5640   -7.8880  -22.9180 C   0  0  0  0  0  0  0  0  0  0  0  0
   -2.4160   -7.8580  -24.4540 C   0  0  0  0  0  1  0  0  0  0  0  0
   -4.0360   -7.6050  -22.5550 C   0  0  0  0  0  1  0  0  0  0  0  0
   -1.6960   -6.7510  -22.3410 C   0  0  0  0  0  1  0  0  0  0  0  0
    4.0320  -12.1640  -27.5170 C   0  0  0  0  0  1  0  0  0  0  0  0
    3.8060  -11.6270  -26.0990 C   0  0  1  0  0  3  0  0  0  0  0  0
    4.3400  -10.2710  -26.0220 N   0  0  0  0  0  0  0  0  0  0  0  0
    5.3390  -10.2070  -25.8540 H   0  0  0  0  0  0  0  0  0  0  0  0
    3.9290   -9.1240  -26.6500 C   0  0  0  0  0  0  0  0  0  0  0  0
    4.6570   -8.9170  -27.7610 N   0  0  0  0  0  0  0  0  0  0  0  0
    4.2700   -7.9310  -28.5620 C   0  0  0  0  0  3  0  0  0  0  0  0
    3.2120   -7.1410  -28.3720 N   0  0  0  0  0  0  0  0  0  0  0  0
    2.4990   -7.2990  -27.2350 C   0  0  0  0  0  0  0  0  0  0  0  0
    1.3760   -6.4910  -26.9540 C   0  0  0  0  0  0  0  0  0  0  0  0
    0.6670   -6.6170  -25.7460 C   0  0  0  0  0  3  0  0  0  0  0  0
    1.0640   -7.5370  -24.7920 C   0  0  0  0  0  3  0  0  0  0  0  0
    2.1530   -8.3550  -25.0610 C   0  0  0  0  0  3  0  0  0  0  0  0
    2.8610   -8.2810  -26.2880 C   0  0  0  0  0  0  0  0  0  0  0  0
    0.8470   -5.4570  -27.9010 C   0  0  0  0  0  0  0  0  0  0  0  0
    1.7330   -4.6390  -28.5350 N   0  0  0  0  0  0  0  0  0  0  0  0
   -0.3540   -5.3420  -28.1180 O   0  0  0  0  0  0  0  0  0  0  0  0
    1.3880   -3.9450  -29.1820 H   0  0  0  0  0  0  0  0  0  0  0  0
    2.7320   -4.7140  -28.3590 H   0  0  0  0  0  0  0  0  0  0  0  0
  1  6  1  0  0  0  0
  2  3  1  0  0  0  0
  2  1  2  0  0  0  0
  3  4  2  0  0  0  0
  4  5  1  0  0  0  0
  5  7  1  0  0  0  0
  6  5  2  0  0  0  0
  7 10  1  0  0  0  0
  7  8  1  0  0  0  0
  8  9  2  0  0  0  0
 11  8  1  0  0  0  0
 11 15  1  0  0  0  0
 12 13  1  0  0  0  0
 12 11  2  0  0  0  0
 13 14  2  0  0  0  0
 14 15  1  0  0  0  0
 15 16  1  0  0  0  0
 17 19  1  0  0  0  0
 17 13  1  0  0  0  0
 17 20  1  0  0  0  0
 18 17  1  0  0  0  0
 22 21  1  6  0  0  0
 22 23  1  0  0  0  0
 22  1  1  0  0  0  0
 23 24  1  0  0  0  0
 25 34  1  0  0  0  0
 25 23  1  0  0  0  0
 26 25  2  0  0  0  0
 27 28  2  0  0  0  0
 27 26  1  0  0  0  0
 28 29  1  0  0  0  0
 29 30  2  0  0  0  0
 29 34  1  0  0  0  0
 30 31  1  0  0  0  0
 31 32  2  0  0  0  0
 33 32  1  0  0  0  0
 34 33  2  0  0  0  0
 35 30  1  0  0  0  0
 36 39  1  0  0  0  0
 36 35  1  0  0  0  0
 37 35  2  0  0  0  0
 38 36  1  0  0  0  0
M  END
>  <minimizedAffinity>
-9.91001606

$$$$

 OpenBabel10152419313D

 39 42  0  0  1  0  0  0  0  0999 V2000
    0.4580   -5.9700  -26.3620 C   0  0  0  0  0  0  0  0  0  0  0  0
   -0.0450   -4.7020  -26.6980 C   0  0  0  0  0  3  0  0  0  0  0  0
    0.3510   -4.0680  -27.8720 C   0  0  0  0  0  3  0  0  0  0  0  0
    1.2830   -4.6760  -28.7140 C   0  0  0  0  0  3  0  0  0  0  0  0
    1.8210   -5.9210  -28.3890 C   0  0  0  0  0  0  0  0  0  0  0  0
    1.3450   -6.5930  -27.2580 C   0  0  0  0  0  3  0  0  0  0  0  0
    2.8030   -6.5690  -29.1580 N   0  0  0  0  0  0  0  0  0  0  0  0
    3.7100   -7.5530  -28.8340 C   0  0  0  0  0  0  0  0  0  0  0  0
    4.7090   -7.6750  -29.5460 O   0  0  0  0  0  0  0  0  0  0  0  0
    2.9070   -6.2620  -30.1170 H   0  0  0  0  0  0  0  0  0  0  0  0
    3.4630   -8.4580  -27.7430 C   0  0  0  0  0  0  0  0  0  0  0  0
    3.2210   -9.8170  -27.6720 C   0  0  0  0  0  3  0  0  0  0  0  0
    3.0100  -10.1050  -26.2990 C   0  0  0  0  0  0  0  0  0  0  0  0
    3.1770   -9.0020  -25.5550 N   0  0  0  0  0  0  0  0  0  0  0  0
    3.5220   -8.0530  -26.4390 N   0  0  0  0  0  0  0  0  0  0  0  0
    3.7540   -7.1260  -26.0970 H   0  0  0  0  0  0  0  0  0  0  0  0
    2.5870  -11.4160  -25.6560 C   0  0  0  0  0  0  0  0  0  0  0  0
    1.9440  -11.1740  -24.2740 C   0  0  0  0  0  1  0  0  0  0  0  0
    1.5590  -12.1210  -26.5650 C   0  0  0  0  0  1  0  0  0  0  0  0
    3.7850  -12.3670  -25.4550 C   0  0  0  0  0  1  0  0  0  0  0  0
   -0.2230   -5.5080  -24.0090 C   0  0  0  0  0  1  0  0  0  0  0  0
    0.0290   -6.6070  -25.0480 C   0  0  1  0  0  3  0  0  0  0  0  0
   -1.1580   -7.4530  -25.1310 N   0  0  0  0  0  0  0  0  0  0  0  0
   -1.6970   -7.3620  -25.9870 H   0  0  0  0  0  0  0  0  0  0  0  0
   -1.3990   -8.6900  -24.5930 C   0  0  0  0  0  0  0  0  0  0  0  0
   -1.4270   -9.6200  -25.5640 N   0  0  0  0  0  0  0  0  0  0  0  0
   -1.4910  -10.8900  -25.1820 C   0  0  0  0  0  3  0  0  0  0  0  0
   -1.5100  -11.3250  -23.9210 N   0  0  0  0  0  0  0  0  0  0  0  0
   -1.5360  -10.4050  -22.9320 C   0  0  0  0  0  0  0  0  0  0  0  0
   -1.5720  -10.7870  -21.5740 C   0  0  0  0  0  0  0  0  0  0  0  0
   -1.6550   -9.8290  -20.5460 C   0  0  0  0  0  3  0  0  0  0  0  0
   -1.7130   -8.4810  -20.8470 C   0  0  0  0  0  3  0  0  0  0  0  0
   -1.6560   -8.0860  -22.1770 C   0  0  0  0  0  3  0  0  0  0  0  0
   -1.5280   -9.0250  -23.2320 C   0  0  0  0  0  0  0  0  0  0  0  0
   -1.5190  -12.2120  -21.1160 C   0  0  0  0  0  0  0  0  0  0  0  0
   -2.6620  -12.9540  -21.1590 N   0  0  0  0  0  0  0  0  0  0  0  0
   -0.4760  -12.7190  -20.7180 O   0  0  0  0  0  0  0  0  0  0  0  0
   -2.6350  -13.9190  -20.8620 H   0  0  0  0  0  0  0  0  0  0  0  0
   -3.5370  -12.5470  -21.4780 H   0  0  0  0  0  0  0  0  0  0  0  0
  1 22  1  0  0  0  0
  2  1  1  0  0  0  0
  3  2  2  0  0  0  0
  4  5  2  0  0  0  0
  4  3  1  0  0  0  0
  5  6  1  0  0  0  0
  6  1  2  0  0  0  0
  7  8  1  0  0  0  0
  7  5  1  0  0  0  0
  8 11  1  0  0  0  0
  9  8  2  0  0  0  0
 10  7  1  0  0  0  0
 11 12  2  0  0  0  0
 11 15  1  0  0  0  0
 12 13  1  0  0  0  0
 13 17  1  0  0  0  0
 13 14  2  0  0  0  0
 15 16  1  0  0  0  0
 15 14  1  0  0  0  0
 17 20  1  0  0  0  0
 17 18  1  0  0  0  0
 19 17  1  0  0  0  0
 22 21  1  1  0  0  0
 23 22  1  0  0  0  0
 23 25  1  0  0  0  0
 24 23  1  0  0  0  0
 25 34  1  0  0  0  0
 26 27  1  0  0  0  0
 26 25  2  0  0  0  0
 27 28  2  0  0  0  0
 28 29  1  0  0  0  0
 29 30  1  0  0  0  0
 30 35  1  0  0  0  0
 30 31  2  0  0  0  0
 32 31  1  0  0  0  0
 33 32  2  0  0  0  0
 34 29  2  0  0  0  0
 34 33  1  0  0  0  0
 35 37  2  0  0  0  0
 36 35  1  0  0  0  0
 36 38  1  0  0  0  0
 39 36  1  0  0  0  0
M  END
>  <minimizedAffinity>
-9.32014465

$$$$

 OpenBabel10152419313D

 39 42  0  0  1  0  0  0  0  0999 V2000
   -0.1220  -11.5550  -22.3440 C   0  0  0  0  0  0  0  0  0  0  0  0
   -0.6370  -12.8250  -22.0390 C   0  0  0  0  0  3  0  0  0  0  0  0
   -1.7930  -12.9590  -21.2750 C   0  0  0  0  0  3  0  0  0  0  0  0
   -2.4330  -11.8260  -20.7720 C   0  0  0  0  0  3  0  0  0  0  0  0
   -1.9240  -10.5540  -21.0340 C   0  0  0  0  0  0  0  0  0  0  0  0
   -0.8200  -10.4250  -21.8820 C   0  0  0  0  0  3  0  0  0  0  0  0
   -2.4820   -9.3710  -20.5170 N   0  0  0  0  0  0  0  0  0  0  0  0
   -2.4430   -8.0720  -20.9720 C   0  0  0  0  0  0  0  0  0  0  0  0
   -2.6610   -7.1700  -20.1620 O   0  0  0  0  0  0  0  0  0  0  0  0
   -2.9850   -9.4490  -19.6410 H   0  0  0  0  0  0  0  0  0  0  0  0
   -2.2280   -7.7810  -22.3650 C   0  0  0  0  0  0  0  0  0  0  0  0
   -1.1010   -7.4950  -23.1120 C   0  0  0  0  0  3  0  0  0  0  0  0
   -1.5580   -7.2570  -24.4330 C   0  0  0  0  0  0  0  0  0  0  0  0
   -2.8830   -7.4490  -24.5160 N   0  0  0  0  0  0  0  0  0  0  0  0
   -3.2400   -7.8370  -23.2810 N   0  0  0  0  0  0  0  0  0  0  0  0
   -4.2070   -8.0940  -23.1080 H   0  0  0  0  0  0  0  0  0  0  0  0
   -0.7690   -6.7820  -25.6430 C   0  0  0  0  0  0  0  0  0  0  0  0
   -1.4530   -5.5710  -26.3120 C   0  0  0  0  0  1  0  0  0  0  0  0
    0.6480   -6.3680  -25.1970 C   0  0  0  0  0  1  0  0  0  0  0  0
   -0.6350   -7.8910  -26.7080 C   0  0  0  0  0  1  0  0  0  0  0  0
    1.8530  -12.8290  -23.1770 C   0  0  0  0  0  1  0  0  0  0  0  0
    1.1670  -11.4580  -23.1480 C   0  0  1  0  0  3  0  0  0  0  0  0
    1.0040  -10.9870  -24.5200 N   0  0  0  0  0  0  0  0  0  0  0  0
    0.5160  -10.1030  -24.6200 H   0  0  0  0  0  0  0  0  0  0  0  0
    1.8060  -11.1690  -25.6160 C   0  0  0  0  0  0  0  0  0  0  0  0
    1.6820  -12.4250  -26.0790 N   0  0  0  0  0  0  0  0  0  0  0  0
    2.2760  -12.7050  -27.2330 C   0  0  0  0  0  3  0  0  0  0  0  0
    2.9680  -11.8460  -27.9830 N   0  0  0  0  0  0  0  0  0  0  0  0
    3.1490  -10.5930  -27.5090 C   0  0  0  0  0  0  0  0  0  0  0  0
    3.8830   -9.6330  -28.2360 C   0  0  0  0  0  0  0  0  0  0  0  0
    4.1190   -8.3450  -27.7190 C   0  0  0  0  0  3  0  0  0  0  0  0
    3.6420   -7.9940  -26.4690 C   0  0  0  0  0  3  0  0  0  0  0  0
    2.8990   -8.9200  -25.7490 C   0  0  0  0  0  3  0  0  0  0  0  0
    2.6070  -10.2090  -26.2640 C   0  0  0  0  0  0  0  0  0  0  0  0
    4.4560   -9.8890  -29.5970 C   0  0  0  0  0  0  0  0  0  0  0  0
    4.7210  -11.1750  -29.9620 N   0  0  0  0  0  0  0  0  0  0  0  0
    4.6790   -8.9720  -30.3810 O   0  0  0  0  0  0  0  0  0  0  0  0
    5.0980  -11.3580  -30.8800 H   0  0  0  0  0  0  0  0  0  0  0  0
    4.5510  -11.9440  -29.3210 H   0  0  0  0  0  0  0  0  0  0  0  0
  1  2  2  0  0  0  0
  1  6  1  0  0  0  0
  2  3  1  0  0  0  0
  3  4  2  0  0  0  0
  5  4  1  0  0  0  0
  5  7  1  0  0  0  0
  6  5  2  0  0  0  0
  7 10  1  0  0  0  0
  8  7  1  0  0  0  0
  8  9  2  0  0  0  0
 11  8  1  0  0  0  0
 12 11  2  0  0  0  0
 13 12  1  0  0  0  0
 14 13  2  0  0  0  0
 14 15  1  0  0  0  0
 15 16  1  0  0  0  0
 15 11  1  0  0  0  0
 17 19  1  0  0  0  0
 17 13  1  0  0  0  0
 18 17  1  0  0  0  0
 20 17  1  0  0  0  0
 22 21  1  6  0  0  0
 22  1  1  0  0  0  0
 23 22  1  0  0  0  0
 24 23  1  0  0  0  0
 25 23  1  0  0  0  0
 26 25  1  0  0  0  0
 27 26  2  0  0  0  0
 28 29  2  0  0  0  0
 28 27  1  0  0  0  0
 29 34  1  0  0  0  0
 30 31  2  0  0  0  0
 30 29  1  0  0  0  0
 31 32  1  0  0  0  0
 32 33  2  0  0  0  0
 34 33  1  0  0  0  0
 34 25  2  0  0  0  0
 35 30  1  0  0  0  0
 36 35  1  0  0  0  0
 36 39  1  0  0  0  0
 37 35  2  0  0  0  0
 38 36  1  0  0  0  0
M  END
>  <minimizedAffinity>
-7.48735046

$$$$

 OpenBabel10152419313D

 39 42  0  0  1  0  0  0  0  0999 V2000
    3.0430  -10.7140  -26.7900 C   0  0  0  0  0  0  0  0  0  0  0  0
    3.1190  -12.0940  -27.0370 C   0  0  0  0  0  3  0  0  0  0  0  0
    3.7690  -12.5800  -28.1680 C   0  0  0  0  0  3  0  0  0  0  0  0
    4.3230  -11.6920  -29.0900 C   0  0  0  0  0  3  0  0  0  0  0  0
    4.2350  -10.3150  -28.8850 C   0  0  0  0  0  0  0  0  0  0  0  0
    3.6660   -9.8400  -27.6980 C   0  0  0  0  0  3  0  0  0  0  0  0
    4.7210   -9.3600  -29.7950 N   0  0  0  0  0  0  0  0  0  0  0  0
    4.2640   -8.1050  -30.1270 C   0  0  0  0  0  0  0  0  0  0  0  0
    4.6120   -7.6310  -31.2100 O   0  0  0  0  0  0  0  0  0  0  0  0
    5.5330   -9.6220  -30.3400 H   0  0  0  0  0  0  0  0  0  0  0  0
    3.4650   -7.3400  -29.2050 C   0  0  0  0  0  0  0  0  0  0  0  0
    2.1180   -7.0400  -29.1380 C   0  0  0  0  0  3  0  0  0  0  0  0
    1.9600   -6.2000  -28.0060 C   0  0  0  0  0  0  0  0  0  0  0  0
    3.1310   -6.0410  -27.3700 N   0  0  0  0  0  0  0  0  0  0  0  0
    3.9930   -6.7970  -28.0680 N   0  0  0  0  0  0  0  0  0  0  0  0
    4.9500   -6.8780  -27.7400 H   0  0  0  0  0  0  0  0  0  0  0  0
    0.7140   -5.4730  -27.5260 C   0  0  0  0  0  0  0  0  0  0  0  0
   -0.5580   -6.0720  -28.1610 C   0  0  0  0  0  1  0  0  0  0  0  0
    0.6110   -5.5990  -25.9920 C   0  0  0  0  0  1  0  0  0  0  0  0
    0.7550   -3.9730  -27.8840 C   0  0  0  0  0  1  0  0  0  0  0  0
    2.0390   -8.7190  -25.6840 C   0  0  0  0  0  1  0  0  0  0  0  0
    2.2870  -10.2270  -25.5620 C   0  0  1  0  0  3  0  0  0  0  0  0
    1.0120  -10.8920  -25.3180 N   0  0  0  0  0  0  0  0  0  0  0  0
    0.9530  -11.8520  -25.6460 H   0  0  0  0  0  0  0  0  0  0  0  0
    0.1090  -10.7240  -24.3000 C   0  0  0  0  0  0  0  0  0  0  0  0
    0.2830  -11.6720  -23.3640 N   0  0  0  0  0  0  0  0  0  0  0  0
   -0.4130  -11.5450  -22.2400 C   0  0  0  0  0  3  0  0  0  0  0  0
   -1.2520  -10.5500  -21.9500 N   0  0  0  0  0  0  0  0  0  0  0  0
   -1.4800   -9.6150  -22.8990 C   0  0  0  0  0  0  0  0  0  0  0  0
   -2.3670   -8.5410  -22.6730 C   0  0  0  0  0  0  0  0  0  0  0  0
   -2.6470   -7.5990  -23.6800 C   0  0  0  0  0  3  0  0  0  0  0  0
   -2.0630   -7.7120  -24.9280 C   0  0  0  0  0  3  0  0  0  0  0  0
   -1.1710   -8.7500  -25.1610 C   0  0  0  0  0  3  0  0  0  0  0  0
   -0.8350   -9.6890  -24.1520 C   0  0  0  0  0  0  0  0  0  0  0  0
   -3.0660   -8.3080  -21.3690 C   0  0  0  0  0  0  0  0  0  0  0  0
   -2.3350   -8.3530  -20.2190 N   0  0  0  0  0  0  0  0  0  0  0  0
   -4.2690   -8.0720  -21.3190 O   0  0  0  0  0  0  0  0  0  0  0  0
   -2.7950   -8.1880  -19.3360 H   0  0  0  0  0  0  0  0  0  0  0  0
   -1.3400   -8.5570  -20.2420 H   0  0  0  0  0  0  0  0  0  0  0  0
  1 22  1  0  0  0  0
  2  1  1  0  0  0  0
  3  2  2  0  0  0  0
  4  5  2  0  0  0  0
  4  3  1  0  0  0  0
  5  6  1  0  0  0  0
  6  1  2  0  0  0  0
  7  5  1  0  0  0  0
  8  7  1  0  0  0  0
  8 11  1  0  0  0  0
  9  8  2  0  0  0  0
 10  7  1  0  0  0  0
 11 12  2  0  0  0  0
 11 15  1  0  0  0  0
 12 13  1  0  0  0  0
 13 17  1  0  0  0  0
 13 14  2  0  0  0  0
 15 16  1  0  0  0  0
 15 14  1  0  0  0  0
 17 19  1  0  0  0  0
 18 17  1  0  0  0  0
 20 17  1  0  0  0  0
 22 21  1  6  0  0  0
 22 23  1  0  0  0  0
 23 25  1  0  0  0  0
 24 23  1  0  0  0  0
 25 34  2  0  0  0  0
 25 26  1  0  0  0  0
 26 27  2  0  0  0  0
 27 28  1  0  0  0  0
 29 30  1  0  0  0  0
 29 28  2  0  0  0  0
 30 35  1  0  0  0  0
 31 30  2  0  0  0  0
 32 31  1  0  0  0  0
 33 32  2  0  0  0  0
 33 34  1  0  0  0  0
 34 29  1  0  0  0  0
 35 37  2  0  0  0  0
 35 36  1  0  0  0  0
 36 38  1  0  0  0  0
 39 36  1  0  0  0  0
M  END
>  <minimizedAffinity>
-7.47830677

$$$$

 OpenBabel10152419313D

 39 42  0  0  1  0  0  0  0  0999 V2000
    3.8220   -9.5430  -28.0850 C   0  0  0  0  0  0  0  0  0  0  0  0
    4.2130  -10.0880  -29.3180 C   0  0  0  0  0  3  0  0  0  0  0  0
    4.4200  -11.4580  -29.4560 C   0  0  0  0  0  3  0  0  0  0  0  0
    4.2740  -12.3010  -28.3540 C   0  0  0  0  0  3  0  0  0  0  0  0
    3.9160  -11.7810  -27.1110 C   0  0  0  0  0  0  0  0  0  0  0  0
    3.6160  -10.4190  -27.0040 C   0  0  0  0  0  3  0  0  0  0  0  0
    3.8040  -12.5590  -25.9450 N   0  0  0  0  0  0  0  0  0  0  0  0
    3.1380  -12.3340  -24.7610 C   0  0  0  0  0  0  0  0  0  0  0  0
    3.5030  -12.9590  -23.7650 O   0  0  0  0  0  0  0  0  0  0  0  0
    4.3140  -13.4340  -25.9300 H   0  0  0  0  0  0  0  0  0  0  0  0
    2.0020  -11.4510  -24.7070 C   0  0  0  0  0  0  0  0  0  0  0  0
    0.7870  -11.4240  -25.3650 C   0  0  0  0  0  3  0  0  0  0  0  0
    0.1160  -10.2640  -24.9000 C   0  0  0  0  0  0  0  0  0  0  0  0
    0.8440   -9.6440  -23.9590 N   0  0  0  0  0  0  0  0  0  0  0  0
    1.9290  -10.4200  -23.8130 N   0  0  0  0  0  0  0  0  0  0  0  0
    2.6140  -10.1760  -23.1050 H   0  0  0  0  0  0  0  0  0  0  0  0
   -1.2030   -9.6740  -25.3720 C   0  0  0  0  0  0  0  0  0  0  0  0
   -0.9800   -8.6520  -26.5060 C   0  0  0  0  0  1  0  0  0  0  0  0
   -2.1100  -10.8080  -25.8950 C   0  0  0  0  0  1  0  0  0  0  0  0
   -1.9460   -8.9520  -24.2290 C   0  0  0  0  0  1  0  0  0  0  0  0
    4.3560   -7.3500  -29.1440 C   0  0  0  0  0  1  0  0  0  0  0  0
    3.6470   -8.0350  -27.9700 C   0  0  1  0  0  3  0  0  0  0  0  0
    2.2620   -7.5760  -27.9270 N   0  0  0  0  0  0  0  0  0  0  0  0
    1.5960   -8.2420  -27.5470 H   0  0  0  0  0  0  0  0  0  0  0  0
    1.7560   -6.3120  -27.7680 C   0  0  0  0  0  0  0  0  0  0  0  0
    1.9820   -5.5800  -28.8720 N   0  0  0  0  0  0  0  0  0  0  0  0
    1.4090   -4.3830  -28.9290 C   0  0  0  0  0  3  0  0  0  0  0  0
    0.6140   -3.8530  -27.9990 N   0  0  0  0  0  0  0  0  0  0  0  0
    0.4170   -4.5520  -26.8590 C   0  0  0  0  0  0  0  0  0  0  0  0
   -0.3970   -4.0500  -25.8220 C   0  0  0  0  0  0  0  0  0  0  0  0
   -0.5570   -4.7520  -24.6120 C   0  0  0  0  0  3  0  0  0  0  0  0
    0.0950   -5.9540  -24.4080 C   0  0  0  0  0  3  0  0  0  0  0  0
    0.8830   -6.4730  -25.4260 C   0  0  0  0  0  3  0  0  0  0  0  0
    1.0280   -5.8110  -26.6720 C   0  0  0  0  0  0  0  0  0  0  0  0
   -1.1530   -2.7600  -25.9170 C   0  0  0  0  0  0  0  0  0  0  0  0
   -0.8590   -1.9050  -26.9360 N   0  0  0  0  0  0  0  0  0  0  0  0
   -2.0280   -2.4690  -25.1080 O   0  0  0  0  0  0  0  0  0  0  0  0
   -1.3690   -1.0370  -27.0140 H   0  0  0  0  0  0  0  0  0  0  0  0
   -0.1300   -2.1270  -27.6090 H   0  0  0  0  0  0  0  0  0  0  0  0
  1 22  1  0  0  0  0
  1  6  1  0  0  0  0
  2  1  2  0  0  0  0
  3  2  1  0  0  0  0
  3  4  2  0  0  0  0
  4  5  1  0  0  0  0
  5  6  2  0  0  0  0
  5  7  1  0  0  0  0
  7 10  1  0  0  0  0
  7  8  1  0  0  0  0
  8 11  1  0  0  0  0
  8  9  2  0  0  0  0
 11 15  1  0  0  0  0
 12 13  1  0  0  0  0
 12 11  2  0  0  0  0
 13 14  2  0  0  0  0
 14 15  1  0  0  0  0
 15 16  1  0  0  0  0
 17 13  1  0  0  0  0
 17 20  1  0  0  0  0
 18 17  1  0  0  0  0
 19 17  1  0  0  0  0
 22 21  1  6  0  0  0
 22 23  1  0  0  0  0
 23 25  1  0  0  0  0
 23 24  1  0  0  0  0
 25 34  1  0  0  0  0
 26 25  2  0  0  0  0
 27 26  1  0  0  0  0
 27 28  2  0  0  0  0
 28 29  1  0  0  0  0
 29 34  2  0  0  0  0
 29 30  1  0  0  0  0
 30 31  2  0  0  0  0
 31 32  1  0  0  0  0
 33 32  2  0  0  0  0
 34 33  1  0  0  0  0
 35 30  1  0  0  0  0
 35 37  2  0  0  0  0
 36 35  1  0  0  0  0
 38 36  1  0  0  0  0
 39 36  1  0  0  0  0
M  END
>  <minimizedAffinity>
-7.21642447

$$$$

 OpenBabel10152419313D

 39 42  0  0  1  0  0  0  0  0999 V2000
    2.0410  -11.3780  -25.4320 C   0  0  0  0  0  0  0  0  0  0  0  0
    2.7480  -12.5390  -25.0790 C   0  0  0  0  0  3  0  0  0  0  0  0
    4.0810  -12.7000  -25.4460 C   0  0  0  0  0  3  0  0  0  0  0  0
    4.7200  -11.7170  -26.2030 C   0  0  0  0  0  3  0  0  0  0  0  0
    4.0320  -10.5680  -26.5930 C   0  0  0  0  0  0  0  0  0  0  0  0
    2.7240  -10.3710  -26.1370 C   0  0  0  0  0  3  0  0  0  0  0  0
    4.5920   -9.5620  -27.4000 N   0  0  0  0  0  0  0  0  0  0  0  0
    4.0600   -8.3950  -27.8990 C   0  0  0  0  0  0  0  0  0  0  0  0
    4.6010   -7.8880  -28.8840 O   0  0  0  0  0  0  0  0  0  0  0  0
    5.5450   -9.7050  -27.7110 H   0  0  0  0  0  0  0  0  0  0  0  0
    2.9520   -7.7470  -27.2470 C   0  0  0  0  0  0  0  0  0  0  0  0
    1.8780   -7.0090  -27.7070 C   0  0  0  0  0  3  0  0  0  0  0  0
    1.1580   -6.6060  -26.5530 C   0  0  0  0  0  0  0  0  0  0  0  0
    1.7150   -7.1200  -25.4460 N   0  0  0  0  0  0  0  0  0  0  0  0
    2.7390   -7.8590  -25.9020 N   0  0  0  0  0  0  0  0  0  0  0  0
    3.2890   -8.3960  -25.2380 H   0  0  0  0  0  0  0  0  0  0  0  0
   -0.0410   -5.6760  -26.4550 C   0  0  0  0  0  0  0  0  0  0  0  0
    0.1030   -4.4820  -27.4220 C   0  0  0  0  0  1  0  0  0  0  0  0
   -1.3220   -6.4570  -26.8170 C   0  0  0  0  0  1  0  0  0  0  0  0
   -0.2080   -5.1090  -25.0310 C   0  0  0  0  0  1  0  0  0  0  0  0
   -0.2670  -12.1510  -25.9690 C   0  0  0  0  0  1  0  0  0  0  0  0
    0.5730  -11.2630  -25.0440 C   0  0  1  0  0  3  0  0  0  0  0  0
    0.2720  -11.6120  -23.6590 N   0  0  0  0  0  0  0  0  0  0  0  0
    1.0730  -11.8800  -23.0950 H   0  0  0  0  0  0  0  0  0  0  0  0
   -0.7120  -11.1480  -22.8270 C   0  0  0  0  0  0  0  0  0  0  0  0
   -1.1360  -12.1320  -22.0150 N   0  0  0  0  0  0  0  0  0  0  0  0
   -1.9760  -11.7940  -21.0430 C   0  0  0  0  0  3  0  0  0  0  0  0
   -2.4200  -10.5620  -20.7890 N   0  0  0  0  0  0  0  0  0  0  0  0
   -2.0470   -9.5680  -21.6260 C   0  0  0  0  0  0  0  0  0  0  0  0
   -2.4890   -8.2420  -21.4330 C   0  0  0  0  0  0  0  0  0  0  0  0
   -2.1460   -7.2170  -22.3350 C   0  0  0  0  0  3  0  0  0  0  0  0
   -1.3720   -7.4930  -23.4470 C   0  0  0  0  0  3  0  0  0  0  0  0
   -0.9100   -8.7880  -23.6410 C   0  0  0  0  0  3  0  0  0  0  0  0
   -1.2020   -9.8320  -22.7250 C   0  0  0  0  0  0  0  0  0  0  0  0
   -3.3350   -7.8150  -20.2720 C   0  0  0  0  0  0  0  0  0  0  0  0
   -4.6450   -7.5140  -20.4960 N   0  0  0  0  0  0  0  0  0  0  0  0
   -2.8760   -7.7410  -19.1380 O   0  0  0  0  0  0  0  0  0  0  0  0
   -5.2260   -7.2340  -19.7190 H   0  0  0  0  0  0  0  0  0  0  0  0
   -5.0390   -7.5610  -21.4320 H   0  0  0  0  0  0  0  0  0  0  0  0
  1  2  1  0  0  0  0
  1 22  1  0  0  0  0
  3  2  2  0  0  0  0
  4  3  1  0  0  0  0
  5  4  2  0  0  0  0
  5  6  1  0  0  0  0
  6  1  2  0  0  0  0
  7  5  1  0  0  0  0
  8  7  1  0  0  0  0
  8 11  1  0  0  0  0
  9  8  2  0  0  0  0
 10  7  1  0  0  0  0
 11 15  1  0  0  0  0
 12 11  2  0  0  0  0
 12 13  1  0  0  0  0
 13 17  1  0  0  0  0
 13 14  2  0  0  0  0
 15 14  1  0  0  0  0
 15 16  1  0  0  0  0
 17 20  1  0  0  0  0
 18 17  1  0  0  0  0
 19 17  1  0  0  0  0
 22 21  1  6  0  0  0
 22 23  1  0  0  0  0
 23 24  1  0  0  0  0
 23 25  1  0  0  0  0
 25 34  2  0  0  0  0
 25 26  1  0  0  0  0
 26 27  2  0  0  0  0
 27 28  1  0  0  0  0
 29 30  1  0  0  0  0
 29 28  2  0  0  0  0
 30 35  1  0  0  0  0
 31 30  2  0  0  0  0
 32 31  1  0  0  0  0
 33 32  2  0  0  0  0
 33 34  1  0  0  0  0
 34 29  1  0  0  0  0
 35 37  2  0  0  0  0
 36 35  1  0  0  0  0
 36 38  1  0  0  0  0
 39 36  1  0  0  0  0
M  END
>  <minimizedAffinity>
-6.9847908

$$$$
