
 OpenBabel10152419313D

 39 42  0  0  1  0  0  0  0  0999 V2000
    2.0410  -11.3780  -25.4320 C   0  0  0  0  0  0  0  0  0  0  0  0
    2.7480  -12.5390  -25.0790 C   0  0  0  0  0  3  0  0  0  0  0  0
    4.0810  -12.7000  -25.4460 C   0  0  0  0  0  3  0  0  0  0  0  0
    4.7200  -11.7170  -26.2030 C   0  0  0  0  0  3  0  0  0  0  0  0
    4.0320  -10.5680  -26.5930 C   0  0  0  0  0  0  0  0  0  0  0  0
    2.7240  -10.3710  -26.1370 C   0  0  0  0  0  3  0  0  0  0  0  0
    4.5920   -9.5620  -27.4000 N   0  0  0  0  0  0  0  0  0  0  0  0
    4.0600   -8.3950  -27.8990 C   0  0  0  0  0  0  0  0  0  0  0  0
    4.6010   -7.8880  -28.8840 O   0  0  0  0  0  0  0  0  0  0  0  0
    5.5450   -9.7050  -27.7110 H   0  0  0  0  0  0  0  0  0  0  0  0
    2.9520   -7.7470  -27.2470 C   0  0  0  0  0  0  0  0  0  0  0  0
    1.8780   -7.0090  -27.7070 C   0  0  0  0  0  3  0  0  0  0  0  0
    1.1580   -6.6060  -26.5530 C   0  0  0  0  0  0  0  0  0  0  0  0
    1.7150   -7.1200  -25.4460 N   0  0  0  0  0  0  0  0  0  0  0  0
    2.7390   -7.8590  -25.9020 N   0  0  0  0  0  0  0  0  0  0  0  0
    3.2890   -8.3960  -25.2380 H   0  0  0  0  0  0  0  0  0  0  0  0
   -0.0410   -5.6760  -26.4550 C   0  0  0  0  0  0  0  0  0  0  0  0
    0.1030   -4.4820  -27.4220 C   0  0  0  0  0  1  0  0  0  0  0  0
   -1.3220   -6.4570  -26.8170 C   0  0  0  0  0  1  0  0  0  0  0  0
   -0.2080   -5.1090  -25.0310 C   0  0  0  0  0  1  0  0  0  0  0  0
   -0.2670  -12.1510  -25.9690 C   0  0  0  0  0  1  0  0  0  0  0  0
    0.5730  -11.2630  -25.0440 C   0  0  1  0  0  3  0  0  0  0  0  0
    0.2720  -11.6120  -23.6590 N   0  0  0  0  0  0  0  0  0  0  0  0
    1.0730  -11.8800  -23.0950 H   0  0  0  0  0  0  0  0  0  0  0  0
   -0.7120  -11.1480  -22.8270 C   0  0  0  0  0  0  0  0  0  0  0  0
   -1.1360  -12.1320  -22.0150 N   0  0  0  0  0  0  0  0  0  0  0  0
   -1.9760  -11.7940  -21.0430 C   0  0  0  0  0  3  0  0  0  0  0  0
   -2.4200  -10.5620  -20.7890 N   0  0  0  0  0  0  0  0  0  0  0  0
   -2.0470   -9.5680  -21.6260 C   0  0  0  0  0  0  0  0  0  0  0  0
   -2.4890   -8.2420  -21.4330 C   0  0  0  0  0  0  0  0  0  0  0  0
   -2.1460   -7.2170  -22.3350 C   0  0  0  0  0  3  0  0  0  0  0  0
   -1.3720   -7.4930  -23.4470 C   0  0  0  0  0  3  0  0  0  0  0  0
   -0.9100   -8.7880  -23.6410 C   0  0  0  0  0  3  0  0  0  0  0  0
   -1.2020   -9.8320  -22.7250 C   0  0  0  0  0  0  0  0  0  0  0  0
   -3.3350   -7.8150  -20.2720 C   0  0  0  0  0  0  0  0  0  0  0  0
   -4.6450   -7.5140  -20.4960 N   0  0  0  0  0  0  0  0  0  0  0  0
   -2.8760   -7.7410  -19.1380 O   0  0  0  0  0  0  0  0  0  0  0  0
   -5.2260   -7.2340  -19.7190 H   0  0  0  0  0  0  0  0  0  0  0  0
   -5.0390   -7.5610  -21.4320 H   0  0  0  0  0  0  0  0  0  0  0  0
  1  2  1  0  0  0  0
  1 22  1  0  0  0  0
  3  2  2  0  0  0  0
  4  3  1  0  0  0  0
  5  4  2  0  0  0  0
  5  6  1  0  0  0  0
  6  1  2  0  0  0  0
  7  5  1  0  0  0  0
  8  7  1  0  0  0  0
  8 11  1  0  0  0  0
  9  8  2  0  0  0  0
 10  7  1  0  0  0  0
 11 15  1  0  0  0  0
 12 11  2  0  0  0  0
 12 13  1  0  0  0  0
 13 17  1  0  0  0  0
 13 14  2  0  0  0  0
 15 14  1  0  0  0  0
 15 16  1  0  0  0  0
 17 20  1  0  0  0  0
 18 17  1  0  0  0  0
 19 17  1  0  0  0  0
 22 21  1  6  0  0  0
 22 23  1  0  0  0  0
 23 24  1  0  0  0  0
 23 25  1  0  0  0  0
 25 34  2  0  0  0  0
 25 26  1  0  0  0  0
 26 27  2  0  0  0  0
 27 28  1  0  0  0  0
 29 30  1  0  0  0  0
 29 28  2  0  0  0  0
 30 35  1  0  0  0  0
 31 30  2  0  0  0  0
 32 31  1  0  0  0  0
 33 32  2  0  0  0  0
 33 34  1  0  0  0  0
 34 29  1  0  0  0  0
 35 37  2  0  0  0  0
 36 35  1  0  0  0  0
 36 38  1  0  0  0  0
 39 36  1  0  0  0  0
M  END
>  <minimizedAffinity>
-6.9847908

$$$$
