
 OpenBabel10152419313D

 39 42  0  0  1  0  0  0  0  0999 V2000
    0.4580   -5.9700  -26.3620 C   0  0  0  0  0  0  0  0  0  0  0  0
   -0.0450   -4.7020  -26.6980 C   0  0  0  0  0  3  0  0  0  0  0  0
    0.3510   -4.0680  -27.8720 C   0  0  0  0  0  3  0  0  0  0  0  0
    1.2830   -4.6760  -28.7140 C   0  0  0  0  0  3  0  0  0  0  0  0
    1.8210   -5.9210  -28.3890 C   0  0  0  0  0  0  0  0  0  0  0  0
    1.3450   -6.5930  -27.2580 C   0  0  0  0  0  3  0  0  0  0  0  0
    2.8030   -6.5690  -29.1580 N   0  0  0  0  0  0  0  0  0  0  0  0
    3.7100   -7.5530  -28.8340 C   0  0  0  0  0  0  0  0  0  0  0  0
    4.7090   -7.6750  -29.5460 O   0  0  0  0  0  0  0  0  0  0  0  0
    2.9070   -6.2620  -30.1170 H   0  0  0  0  0  0  0  0  0  0  0  0
    3.4630   -8.4580  -27.7430 C   0  0  0  0  0  0  0  0  0  0  0  0
    3.2210   -9.8170  -27.6720 C   0  0  0  0  0  3  0  0  0  0  0  0
    3.0100  -10.1050  -26.2990 C   0  0  0  0  0  0  0  0  0  0  0  0
    3.1770   -9.0020  -25.5550 N   0  0  0  0  0  0  0  0  0  0  0  0
    3.5220   -8.0530  -26.4390 N   0  0  0  0  0  0  0  0  0  0  0  0
    3.7540   -7.1260  -26.0970 H   0  0  0  0  0  0  0  0  0  0  0  0
    2.5870  -11.4160  -25.6560 C   0  0  0  0  0  0  0  0  0  0  0  0
    1.9440  -11.1740  -24.2740 C   0  0  0  0  0  1  0  0  0  0  0  0
    1.5590  -12.1210  -26.5650 C   0  0  0  0  0  1  0  0  0  0  0  0
    3.7850  -12.3670  -25.4550 C   0  0  0  0  0  1  0  0  0  0  0  0
   -0.2230   -5.5080  -24.0090 C   0  0  0  0  0  1  0  0  0  0  0  0
    0.0290   -6.6070  -25.0480 C   0  0  1  0  0  3  0  0  0  0  0  0
   -1.1580   -7.4530  -25.1310 N   0  0  0  0  0  0  0  0  0  0  0  0
   -1.6970   -7.3620  -25.9870 H   0  0  0  0  0  0  0  0  0  0  0  0
   -1.3990   -8.6900  -24.5930 C   0  0  0  0  0  0  0  0  0  0  0  0
   -1.4270   -9.6200  -25.5640 N   0  0  0  0  0  0  0  0  0  0  0  0
   -1.4910  -10.8900  -25.1820 C   0  0  0  0  0  3  0  0  0  0  0  0
   -1.5100  -11.3250  -23.9210 N   0  0  0  0  0  0  0  0  0  0  0  0
   -1.5360  -10.4050  -22.9320 C   0  0  0  0  0  0  0  0  0  0  0  0
   -1.5720  -10.7870  -21.5740 C   0  0  0  0  0  0  0  0  0  0  0  0
   -1.6550   -9.8290  -20.5460 C   0  0  0  0  0  3  0  0  0  0  0  0
   -1.7130   -8.4810  -20.8470 C   0  0  0  0  0  3  0  0  0  0  0  0
   -1.6560   -8.0860  -22.1770 C   0  0  0  0  0  3  0  0  0  0  0  0
   -1.5280   -9.0250  -23.2320 C   0  0  0  0  0  0  0  0  0  0  0  0
   -1.5190  -12.2120  -21.1160 C   0  0  0  0  0  0  0  0  0  0  0  0
   -2.6620  -12.9540  -21.1590 N   0  0  0  0  0  0  0  0  0  0  0  0
   -0.4760  -12.7190  -20.7180 O   0  0  0  0  0  0  0  0  0  0  0  0
   -2.6350  -13.9190  -20.8620 H   0  0  0  0  0  0  0  0  0  0  0  0
   -3.5370  -12.5470  -21.4780 H   0  0  0  0  0  0  0  0  0  0  0  0
  1 22  1  0  0  0  0
  2  1  1  0  0  0  0
  3  2  2  0  0  0  0
  4  5  2  0  0  0  0
  4  3  1  0  0  0  0
  5  6  1  0  0  0  0
  6  1  2  0  0  0  0
  7  8  1  0  0  0  0
  7  5  1  0  0  0  0
  8 11  1  0  0  0  0
  9  8  2  0  0  0  0
 10  7  1  0  0  0  0
 11 12  2  0  0  0  0
 11 15  1  0  0  0  0
 12 13  1  0  0  0  0
 13 17  1  0  0  0  0
 13 14  2  0  0  0  0
 15 16  1  0  0  0  0
 15 14  1  0  0  0  0
 17 20  1  0  0  0  0
 17 18  1  0  0  0  0
 19 17  1  0  0  0  0
 22 21  1  1  0  0  0
 23 22  1  0  0  0  0
 23 25  1  0  0  0  0
 24 23  1  0  0  0  0
 25 34  1  0  0  0  0
 26 27  1  0  0  0  0
 26 25  2  0  0  0  0
 27 28  2  0  0  0  0
 28 29  1  0  0  0  0
 29 30  1  0  0  0  0
 30 35  1  0  0  0  0
 30 31  2  0  0  0  0
 32 31  1  0  0  0  0
 33 32  2  0  0  0  0
 34 29  2  0  0  0  0
 34 33  1  0  0  0  0
 35 37  2  0  0  0  0
 36 35  1  0  0  0  0
 36 38  1  0  0  0  0
 39 36  1  0  0  0  0
M  END
>  <minimizedAffinity>
-9.32014465

$$$$
