REMARK  Name = 
REMARK  11 active torsions:
REMARK  status: ('A' for Active; 'I' for Inactive)
REMARK    1  A    between atoms: C_1  and  C_2
REMARK    2  A    between atoms: C_2  and  N_3
REMARK    3  A    between atoms: C_2  and  C_17
REMARK    4  A    between atoms: N_3  and  C_4
REMARK    5  A    between atoms: C_9  and  C_10
REMARK    6  A    between atoms: C_21  and  N_22
REMARK    7  A    between atoms: C_23  and  C_25
REMARK    8  A    between atoms: C_27  and  C_28
REMARK    9  A    between atoms: C_28  and  C_29
REMARK   10  A    between atoms: C_28  and  C_30
REMARK   11  A    between atoms: C_28  and  C_31
REMARK                            x       y       z     vdW  Elec       q    Type
REMARK                         _______ _______ _______ _____ _____    ______ ____
ROOT
ATOM      1  C   UNL     1      -0.809   0.233  -0.750  0.00  0.00    -0.026 A 
ATOM      2  C   UNL     1      -1.233   1.502  -0.324  0.00  0.00    +0.005 A 
ATOM      3  C   UNL     1      -2.498   1.681   0.229  0.00  0.00    +0.002 A 
ATOM      4  C   UNL     1      -3.374   0.600   0.333  0.00  0.00    +0.023 A 
ATOM      5  C   UNL     1      -2.989  -0.665  -0.111  0.00  0.00    +0.034 A 
ATOM      6  C   UNL     1      -1.683  -0.855  -0.575  0.00  0.00    +0.028 A 
ENDROOT
BRANCH   5   7
ATOM      7  N   UNL     1      -3.835  -1.788  -0.089  0.00  0.00    -0.280 N 
ATOM      8  C   UNL     1      -5.207  -1.893  -0.042  0.00  0.00    +0.266 C 
ATOM      9  O   UNL     1      -5.692  -2.951   0.362  0.00  0.00    -0.268 OA
ATOM     10  H   UNL     1      -3.387  -2.696  -0.076  0.00  0.00    +0.155 HD
BRANCH   8  11
ATOM     11  C   UNL     1      -6.048  -0.827  -0.520  0.00  0.00    +0.121 A 
ATOM     12  C   UNL     1      -5.881   0.160  -1.473  0.00  0.00    +0.058 A 
ATOM     13  C   UNL     1      -7.068   0.936  -1.444  0.00  0.00    +0.069 A 
ATOM     14  N   UNL     1      -7.947   0.421  -0.571  0.00  0.00    -0.178 NA
ATOM     15  N   UNL     1      -7.337  -0.675  -0.093  0.00  0.00    -0.272 N 
ATOM     16  H   UNL     1      -7.839  -1.270   0.559  0.00  0.00    +0.189 HD
BRANCH  13  17
ATOM     17  C   UNL     1      -7.385   2.220  -2.194  0.00  0.00    +0.006 C 
ATOM     18  C   UNL     1      -8.840   2.218  -2.708  0.00  0.00    +0.017 C 
ATOM     19  C   UNL     1      -7.194   3.423  -1.247  0.00  0.00    +0.017 C 
ATOM     20  C   UNL     1      -6.458   2.413  -3.412  0.00  0.00    +0.017 C 
ENDBRANCH  13  17
ENDBRANCH   8  11
ENDBRANCH   5   7
BRANCH   1  22
ATOM     21  C   UNL     1       1.607  -0.177  -0.292  0.00  0.00    +0.033 C 
ATOM     22  C   UNL     1       0.567   0.092  -1.386  0.00  0.00    +0.099 C 
BRANCH  22  23
ATOM     23  N   UNL     1       0.674  -0.952  -2.400  0.00  0.00    -0.322 N 
ATOM     24  H   UNL     1       1.259  -1.743  -2.148  0.00  0.00    +0.148 HD
BRANCH  23  25
ATOM     25  C   UNL     1      -0.232  -1.362  -3.343  0.00  0.00    +0.130 A 
ATOM     26  N   UNL     1      -0.154  -2.693  -3.513  0.00  0.00    -0.220 NA
ATOM     27  C   UNL     1      -1.080  -3.259  -4.279  0.00  0.00    +0.223 A 
ATOM     28  N   UNL     1      -2.091  -2.627  -4.877  0.00  0.00    -0.235 NA
ATOM     29  C   UNL     1      -2.156  -1.282  -4.761  0.00  0.00    +0.088 A 
ATOM     30  C   UNL     1      -3.186  -0.541  -5.378  0.00  0.00    +0.063 A 
ATOM     31  C   UNL     1      -3.223   0.864  -5.304  0.00  0.00    +0.015 A 
ATOM     32  C   UNL     1      -2.235   1.556  -4.628  0.00  0.00    +0.002 A 
ATOM     33  C   UNL     1      -1.226   0.842  -3.996  0.00  0.00    +0.013 A 
ATOM     34  C   UNL     1      -1.187  -0.576  -4.016  0.00  0.00    +0.041 A 
BRANCH  30  35
ATOM     35  C   UNL     1      -4.311  -1.170  -6.142  0.00  0.00    +0.244 C 
ATOM     36  N   UNL     1      -4.361  -2.529  -6.229  0.00  0.00    -0.325 N 
ATOM     37  O   UNL     1      -5.182  -0.491  -6.675  0.00  0.00    -0.270 OA
ATOM     38  H   UNL     1      -5.120  -2.963  -6.734  0.00  0.00    +0.145 HD
ATOM     39  H   UNL     1      -3.642  -3.106  -5.801  0.00  0.00    +0.145 HD
ENDBRANCH  30  35
ENDBRANCH  23  25
ENDBRANCH  22  23
ENDBRANCH   1  22
TORSDOF 7
