
 OpenBabel10152418153D

 38 41  0  0  1  0  0  0  0  0999 V2000
    0.1820   -6.8700  -24.8120 C   0  0  0  0  0  0  0  0  0  0  0  0
   -0.2230   -6.2920  -26.0200 C   0  0  0  0  0  3  0  0  0  0  0  0
   -0.0620   -6.9740  -27.2230 C   0  0  0  0  0  3  0  0  0  0  0  0
    0.4320   -8.2780  -27.2250 C   0  0  0  0  0  3  0  0  0  0  0  0
    0.7890   -8.9140  -26.0220 C   0  0  0  0  0  0  0  0  0  0  0  0
    0.7160   -8.1670  -24.8160 C   0  0  0  0  0  3  0  0  0  0  0  0
   -1.1480   -6.3400  -22.7110 C   0  0  0  0  0  0  0  0  0  0  0  0
   -1.6510   -5.3310  -22.2120 O   0  0  0  0  0  0  0  0  0  0  0  0
   -0.1620   -6.1650  -23.6460 N   0  0  0  0  0  0  0  0  0  0  0  0
    0.3000   -5.2720  -23.5250 H   0  0  0  0  0  0  0  0  0  0  0  0
   -1.6780   -9.7910  -21.6030 C   0  0  0  0  0  0  0  0  0  0  0  0
   -1.7130   -8.8820  -22.6980 C   0  0  0  0  0  3  0  0  0  0  0  0
   -1.4230   -7.6420  -22.1650 C   0  0  0  0  0  0  0  0  0  0  0  0
   -1.2710   -7.8740  -20.8240 N   0  0  0  0  0  0  0  0  0  0  0  0
   -1.4130   -9.1540  -20.4550 N   0  0  0  0  0  0  0  0  0  0  0  0
   -1.0180   -7.1910  -20.1170 H   0  0  0  0  0  0  0  0  0  0  0  0
   -1.0220  -11.9700  -22.6130 C   0  0  0  0  0  1  0  0  0  0  0  0
   -1.9250  -11.2750  -21.5880 C   0  0  0  0  0  3  0  0  0  0  0  0
   -1.8510  -11.8870  -20.1830 C   0  0  0  0  0  1  0  0  0  0  0  0
    1.0670  -10.4230  -25.9890 C   0  0  1  0  0  3  0  0  0  0  0  0
   -0.2520  -11.2000  -26.0530 C   0  0  0  0  0  1  0  0  0  0  0  0
    1.9030  -10.8740  -27.1040 N   0  0  0  0  0  0  0  0  0  0  0  0
    1.4570  -11.1980  -27.9470 H   0  0  0  0  0  0  0  0  0  0  0  0
    3.1890  -10.3450  -27.1780 C   0  0  0  0  0  0  0  0  0  0  0  0
    3.5170   -9.4140  -26.2660 N   0  0  0  0  0  0  0  0  0  0  0  0
    4.4530   -8.5420  -26.6220 C   0  0  0  0  0  3  0  0  0  0  0  0
    4.9720   -8.4500  -27.8440 N   0  0  0  0  0  0  0  0  0  0  0  0
    4.6370   -9.4120  -28.7300 C   0  0  0  0  0  0  0  0  0  0  0  0
    4.8260   -9.2960  -30.1080 C   0  0  0  0  0  0  0  0  0  0  0  0
    4.9410  -10.4140  -30.9420 C   0  0  0  0  0  3  0  0  0  0  0  0
    4.5070  -11.6380  -30.4670 C   0  0  0  0  0  3  0  0  0  0  0  0
    3.8850  -11.6690  -29.2210 C   0  0  0  0  0  3  0  0  0  0  0  0
    3.9220  -10.5350  -28.3580 C   0  0  0  0  0  0  0  0  0  0  0  0
    4.0920   -8.1200  -30.6710 C   0  0  0  0  0  0  0  0  0  0  0  0
    4.5310   -6.8680  -30.2980 N   0  0  0  0  0  0  0  0  0  0  0  0
    3.2620   -8.2180  -31.5410 O   0  0  0  0  0  0  0  0  0  0  0  0
    4.1540   -6.0880  -30.8200 H   0  0  0  0  0  0  0  0  0  0  0  0
    5.3180   -6.6960  -29.6930 H   0  0  0  0  0  0  0  0  0  0  0  0
  1  9  1  0  0  0  0
  2  1  2  0  0  0  0
  3  2  1  0  0  0  0
  4  3  2  0  0  0  0
  4  5  1  0  0  0  0
  5 20  1  0  0  0  0
  5  6  2  0  0  0  0
  6  1  1  0  0  0  0
  7  8  2  0  0  0  0
  7 13  1  0  0  0  0
  9 10  1  0  0  0  0
  9  7  1  0  0  0  0
 11 18  1  0  0  0  0
 11 15  2  0  0  0  0
 12 13  2  0  0  0  0
 12 11  1  0  0  0  0
 13 14  1  0  0  0  0
 14 15  1  0  0  0  0
 14 16  1  0  0  0  0
 17 18  1  0  0  0  0
 18 19  1  0  0  0  0
 20 21  1  6  0  0  0
 22 20  1  0  0  0  0
 23 22  1  0  0  0  0
 24 22  1  0  0  0  0
 24 25  1  0  0  0  0
 26 25  2  0  0  0  0
 27 26  1  0  0  0  0
 28 33  1  0  0  0  0
 28 27  2  0  0  0  0
 29 28  1  0  0  0  0
 30 31  1  0  0  0  0
 30 29  2  0  0  0  0
 31 32  2  0  0  0  0
 32 33  1  0  0  0  0
 33 24  2  0  0  0  0
 34 35  1  0  0  0  0
 34 29  1  0  0  0  0
 35 38  1  0  0  0  0
 36 34  2  0  0  0  0
 37 35  1  0  0  0  0
M  END
>  <minimizedAffinity>
-7.59161234

$$$$
