
 OpenBabel10152418153D

 38 41  0  0  1  0  0  0  0  0999 V2000
    4.1320   -9.6060  -27.5660 C   0  0  0  0  0  0  0  0  0  0  0  0
    4.0390  -10.4980  -28.6390 C   0  0  0  0  0  3  0  0  0  0  0  0
    3.3960  -11.7240  -28.4900 C   0  0  0  0  0  3  0  0  0  0  0  0
    2.7650  -12.0390  -27.2870 C   0  0  0  0  0  3  0  0  0  0  0  0
    2.7830  -11.1360  -26.2080 C   0  0  0  0  0  0  0  0  0  0  0  0
    3.5310   -9.9370  -26.3430 C   0  0  0  0  0  3  0  0  0  0  0  0
    4.1290   -7.2170  -28.4400 C   0  0  0  0  0  0  0  0  0  0  0  0
    4.8630   -6.5370  -29.1600 O   0  0  0  0  0  0  0  0  0  0  0  0
    4.6640   -8.3390  -27.8630 N   0  0  0  0  0  0  0  0  0  0  0  0
    5.6700   -8.2580  -27.7730 H   0  0  0  0  0  0  0  0  0  0  0  0
    0.9730   -5.9340  -27.0940 C   0  0  0  0  0  0  0  0  0  0  0  0
    2.0690   -6.8200  -26.8960 C   0  0  0  0  0  3  0  0  0  0  0  0
    2.8370   -6.7280  -28.0400 C   0  0  0  0  0  0  0  0  0  0  0  0
    2.1560   -5.8460  -28.8370 N   0  0  0  0  0  0  0  0  0  0  0  0
    1.0360   -5.3490  -28.2960 N   0  0  0  0  0  0  0  0  0  0  0  0
    2.4450   -5.5110  -29.7510 H   0  0  0  0  0  0  0  0  0  0  0  0
    0.2200   -5.8630  -24.7220 C   0  0  0  0  0  1  0  0  0  0  0  0
   -0.1850   -5.6330  -26.1820 C   0  0  0  0  0  3  0  0  0  0  0  0
   -0.8170   -4.2590  -26.4400 C   0  0  0  0  0  1  0  0  0  0  0  0
    1.8680  -11.3530  -24.9940 C   0  0  1  0  0  3  0  0  0  0  0  0
    2.6480  -12.0380  -23.8670 C   0  0  0  0  0  1  0  0  0  0  0  0
    1.3220  -10.1030  -24.4600 N   0  0  0  0  0  0  0  0  0  0  0  0
    1.8940   -9.2750  -24.4790 H   0  0  0  0  0  0  0  0  0  0  0  0
   -0.0640   -9.9700  -24.4680 C   0  0  0  0  0  0  0  0  0  0  0  0
   -0.5890   -9.1320  -25.3780 N   0  0  0  0  0  0  0  0  0  0  0  0
   -1.7590   -8.5830  -25.0710 C   0  0  0  0  0  3  0  0  0  0  0  0
   -2.3590   -8.6990  -23.8880 N   0  0  0  0  0  0  0  0  0  0  0  0
   -1.8160   -9.5630  -23.0050 C   0  0  0  0  0  0  0  0  0  0  0  0
   -2.1180   -9.5680  -21.6410 C   0  0  0  0  0  0  0  0  0  0  0  0
   -1.9560  -10.7090  -20.8460 C   0  0  0  0  0  3  0  0  0  0  0  0
   -1.1570  -11.7330  -21.3180 C   0  0  0  0  0  3  0  0  0  0  0  0
   -0.4750  -11.5280  -22.5150 C   0  0  0  0  0  3  0  0  0  0  0  0
   -0.7840  -10.4150  -23.3510 C   0  0  0  0  0  0  0  0  0  0  0  0
   -1.7930   -8.2570  -20.9970 C   0  0  0  0  0  0  0  0  0  0  0  0
   -2.3660   -7.1300  -21.5440 N   0  0  0  0  0  0  0  0  0  0  0  0
   -1.2000   -8.1690  -19.9500 O   0  0  0  0  0  0  0  0  0  0  0  0
   -2.2920   -6.2810  -20.9980 H   0  0  0  0  0  0  0  0  0  0  0  0
   -2.9990   -7.1340  -22.3290 H   0  0  0  0  0  0  0  0  0  0  0  0
  1  6  1  0  0  0  0
  2  3  1  0  0  0  0
  2  1  2  0  0  0  0
  3  4  2  0  0  0  0
  4  5  1  0  0  0  0
  5 20  1  0  0  0  0
  6  5  2  0  0  0  0
  7 13  1  0  0  0  0
  7  9  1  0  0  0  0
  8  7  2  0  0  0  0
  9 10  1  0  0  0  0
  9  1  1  0  0  0  0
 11 12  1  0  0  0  0
 11 18  1  0  0  0  0
 13 12  2  0  0  0  0
 14 15  1  0  0  0  0
 14 13  1  0  0  0  0
 15 11  2  0  0  0  0
 16 14  1  0  0  0  0
 18 17  1  0  0  0  0
 19 18  1  0  0  0  0
 20 22  1  0  0  0  0
 20 21  1  1  0  0  0
 23 22  1  0  0  0  0
 24 22  1  0  0  0  0
 24 33  1  0  0  0  0
 25 26  1  0  0  0  0
 25 24  2  0  0  0  0
 26 27  2  0  0  0  0
 27 28  1  0  0  0  0
 28 29  1  0  0  0  0
 29 34  1  0  0  0  0
 29 30  2  0  0  0  0
 31 30  1  0  0  0  0
 32 31  2  0  0  0  0
 33 28  2  0  0  0  0
 33 32  1  0  0  0  0
 34 36  2  0  0  0  0
 35 37  1  0  0  0  0
 35 34  1  0  0  0  0
 38 35  1  0  0  0  0
M  END
>  <minimizedAffinity>
-8.65977001

$$$$
