REMARK  Name = 
REMARK  10 active torsions:
REMARK  status: ('A' for Active; 'I' for Inactive)
REMARK    1  A    between atoms: C_1  and  C_2
REMARK    2  A    between atoms: C_2  and  C_3
REMARK    3  A    between atoms: C_2  and  C_4
REMARK    4  A    between atoms: C_6  and  C_7
REMARK    5  A    between atoms: N_9  and  C_10
REMARK    6  A    between atoms: C_14  and  C_15
REMARK    7  A    between atoms: C_15  and  C_16
REMARK    8  A    between atoms: C_15  and  N_17
REMARK    9  A    between atoms: N_17  and  C_18
REMARK   10  A    between atoms: C_23  and  C_24
REMARK                            x       y       z     vdW  Elec       q    Type
REMARK                         _______ _______ _______ _____ _____    ______ ____
ROOT
ATOM      1  C   UNL     1      -2.095  -3.950  -0.740  0.00  0.00    +0.034 A 
ATOM      2  C   UNL     1      -1.761  -5.101  -1.461  0.00  0.00    +0.023 A 
ATOM      3  C   UNL     1      -0.590  -5.800  -1.180  0.00  0.00    +0.002 A 
ATOM      4  C   UNL     1       0.222  -5.403  -0.119  0.00  0.00    +0.005 A 
ATOM      5  C   UNL     1      -0.118  -4.288   0.669  0.00  0.00    -0.026 A 
ATOM      6  C   UNL     1      -1.259  -3.526   0.304  0.00  0.00    +0.028 A 
ENDROOT
BRANCH   1   9
ATOM      7  C   UNL     1      -3.921  -2.180  -0.755  0.00  0.00    +0.266 C 
ATOM      8  O   UNL     1      -5.117  -2.139  -0.458  0.00  0.00    -0.268 OA
ATOM      9  N   UNL     1      -3.366  -3.409  -0.998  0.00  0.00    -0.280 N 
ATOM     10  H   UNL     1      -4.071  -4.075  -1.291  0.00  0.00    +0.155 HD
BRANCH   7  13
ATOM     11  C   UNL     1      -1.962   0.728  -1.815  0.00  0.00    +0.066 A 
ATOM     12  C   UNL     1      -1.980  -0.684  -1.636  0.00  0.00    +0.057 A 
ATOM     13  C   UNL     1      -3.199  -0.973  -1.057  0.00  0.00    +0.121 A 
ATOM     14  N   UNL     1      -3.800   0.248  -0.900  0.00  0.00    -0.272 N 
ATOM     15  N   UNL     1      -3.085   1.288  -1.349  0.00  0.00    -0.178 NA
ATOM     16  H   UNL     1      -4.730   0.421  -0.531  0.00  0.00    +0.189 HD
BRANCH  11  18
ATOM     17  C   UNL     1       0.191   1.883  -1.335  0.00  0.00    +0.014 C 
ATOM     18  C   UNL     1      -0.882   1.602  -2.393  0.00  0.00    +0.033 C 
ATOM     19  C   UNL     1      -0.320   1.073  -3.719  0.00  0.00    +0.014 C 
ENDBRANCH  11  18
ENDBRANCH   7  13
ENDBRANCH   1   9
BRANCH   5  20
ATOM     20  C   UNL     1       0.612  -4.015   1.992  0.00  0.00    +0.099 C 
ATOM     21  C   UNL     1       0.291  -5.119   3.004  0.00  0.00    +0.033 C 
BRANCH  20  22
ATOM     22  N   UNL     1       2.068  -3.961   1.840  0.00  0.00    -0.322 N 
ATOM     23  H   UNL     1       2.562  -4.799   1.582  0.00  0.00    +0.148 HD
BRANCH  22  24
ATOM     24  C   UNL     1       2.620  -2.723   1.519  0.00  0.00    +0.130 A 
ATOM     25  N   UNL     1       2.070  -1.643   2.101  0.00  0.00    -0.220 NA
ATOM     26  C   UNL     1       2.180  -0.496   1.440  0.00  0.00    +0.223 A 
ATOM     27  N   UNL     1       2.664  -0.380   0.206  0.00  0.00    -0.235 NA
ATOM     28  C   UNL     1       3.226  -1.479  -0.341  0.00  0.00    +0.088 A 
ATOM     29  C   UNL     1       3.484  -1.619  -1.706  0.00  0.00    +0.063 A 
ATOM     30  C   UNL     1       4.464  -2.491  -2.194  0.00  0.00    +0.015 A 
ATOM     31  C   UNL     1       4.935  -3.487  -1.359  0.00  0.00    +0.002 A 
ATOM     32  C   UNL     1       4.332  -3.629  -0.111  0.00  0.00    +0.013 A 
ATOM     33  C   UNL     1       3.444  -2.632   0.389  0.00  0.00    +0.041 A 
BRANCH  29  34
ATOM     34  C   UNL     1       2.235  -1.500  -2.521  0.00  0.00    +0.244 C 
ATOM     35  N   UNL     1       1.973  -2.511  -3.420  0.00  0.00    -0.325 N 
ATOM     36  O   UNL     1       1.391  -0.664  -2.312  0.00  0.00    -0.270 OA
ATOM     37  H   UNL     1       1.047  -2.518  -3.828  0.00  0.00    +0.145 HD
ATOM     38  H   UNL     1       2.552  -3.326  -3.547  0.00  0.00    +0.145 HD
ENDBRANCH  29  34
ENDBRANCH  22  24
ENDBRANCH  20  22
ENDBRANCH   5  20
TORSDOF 7
