
 OpenBabel10152419063D

 35 38  0  0  0  0  0  0  0  0999 V2000
   10.7860  -11.2980   13.9300 C   0  0  0  0  0  2  0  0  0  0  0  0
    8.0020  -13.8780   13.7590 C   0  0  0  0  0  0  0  0  0  0  0  0
    8.7000  -15.0790   13.8580 C   0  0  0  0  0  3  0  0  0  0  0  0
   10.0980  -15.0610   13.9090 C   0  0  0  0  0  3  0  0  0  0  0  0
   10.7890  -13.8440   13.9160 C   0  0  0  0  0  3  0  0  0  0  0  0
   10.0900  -12.6370   13.8250 C   0  0  0  0  0  0  0  0  0  0  0  0
    8.6980  -12.6700   13.6680 C   0  0  0  0  0  3  0  0  0  0  0  0
    5.7010  -13.2730   12.9120 C   0  0  0  0  0  0  0  0  0  0  0  0
    4.5360  -13.1390   13.2970 O   0  0  0  0  0  0  0  0  0  0  0  0
    6.6100  -13.7830   13.8050 N   0  0  0  0  0  0  0  0  0  0  0  0
    6.1450  -14.2430   14.5790 H   0  0  0  0  0  0  0  0  0  0  0  0
    8.0910  -14.4750   11.1950 C   0  0  0  0  0  1  0  0  0  0  0  0
    7.0670  -13.4880   10.7110 C   0  0  0  0  0  0  0  0  0  0  0  0
    7.1720  -13.1150    9.3530 C   0  0  0  0  0  3  0  0  0  0  0  0
    6.1990  -12.3310    8.7390 C   0  0  0  0  0  3  0  0  0  0  0  0
    5.1120  -11.8830    9.4740 C   0  0  0  0  0  3  0  0  0  0  0  0
    5.0270  -12.1820   10.8340 C   0  0  0  0  0  3  0  0  0  0  0  0
    6.0100  -12.9580   11.4820 C   0  0  0  0  0  0  0  0  0  0  0  0
    9.8530  -10.2600   13.5490 N   0  0  0  0  0  0  0  0  0  0  0  0
    9.7770   -9.5090   14.2190 H   0  0  0  0  0  0  0  0  0  0  0  0
    9.6740   -9.9030   12.2150 C   0  0  0  0  0  0  0  0  0  0  0  0
   10.7660   -9.7330   11.4550 N   0  0  0  0  0  0  0  0  0  0  0  0
   10.5600   -9.3970   10.1820 C   0  0  0  0  0  3  0  0  0  0  0  0
    9.3720   -9.2150    9.6050 N   0  0  0  0  0  0  0  0  0  0  0  0
    8.2590   -9.4070   10.3320 C   0  0  0  0  0  0  0  0  0  0  0  0
    6.9590   -9.2530    9.7890 C   0  0  0  0  0  0  0  0  0  0  0  0
    5.8170   -9.4570   10.5890 C   0  0  0  0  0  3  0  0  0  0  0  0
    5.9380   -9.8200   11.9220 C   0  0  0  0  0  3  0  0  0  0  0  0
    7.2020   -9.9850   12.4620 C   0  0  0  0  0  3  0  0  0  0  0  0
    8.3690   -9.7730   11.6900 C   0  0  0  0  0  0  0  0  0  0  0  0
    6.7900   -8.8940    8.3350 C   0  0  0  0  0  0  0  0  0  0  0  0
    7.9150   -8.7380    7.5630 N   0  0  0  0  0  0  0  0  0  0  0  0
    5.7110   -8.7200    7.7880 O   0  0  0  0  0  0  0  0  0  0  0  0
    7.7490   -8.4860    6.5970 H   0  0  0  0  0  0  0  0  0  0  0  0
    8.8690   -8.8730    7.8510 H   0  0  0  0  0  0  0  0  0  0  0  0
  2 10  1  0  0  0  0
  2  3  1  0  0  0  0
  3  4  2  0  0  0  0
  4  5  1  0  0  0  0
  6  5  2  0  0  0  0
  6  1  1  0  0  0  0
  7  2  2  0  0  0  0
  7  6  1  0  0  0  0
  8  9  2  0  0  0  0
  8 10  1  0  0  0  0
 10 11  1  0  0  0  0
 13 12  1  0  0  0  0
 13 18  1  0  0  0  0
 14 13  2  0  0  0  0
 15 14  1  0  0  0  0
 15 16  2  0  0  0  0
 16 17  1  0  0  0  0
 17 18  2  0  0  0  0
 18  8  1  0  0  0  0
 19  1  1  0  0  0  0
 19 20  1  0  0  0  0
 21 19  1  0  0  0  0
 22 21  2  0  0  0  0
 23 22  1  0  0  0  0
 24 23  2  0  0  0  0
 24 25  1  0  0  0  0
 25 30  1  0  0  0  0
 26 25  2  0  0  0  0
 26 27  1  0  0  0  0
 27 28  2  0  0  0  0
 28 29  1  0  0  0  0
 30 21  1  0  0  0  0
 30 29  2  0  0  0  0
 31 26  1  0  0  0  0
 32 35  1  0  0  0  0
 32 31  1  0  0  0  0
 33 31  2  0  0  0  0
 34 32  1  0  0  0  0
M  END
>  <minimizedAffinity>
5.43194342

$$$$

 OpenBabel10152419063D

 35 38  0  0  0  0  0  0  0  0999 V2000
   10.7230  -11.2180   13.6380 C   0  0  0  0  0  2  0  0  0  0  0  0
    8.0040  -13.8730   13.6370 C   0  0  0  0  0  0  0  0  0  0  0  0
    8.7400  -15.0530   13.5720 C   0  0  0  0  0  3  0  0  0  0  0  0
   10.1320  -14.9920   13.4530 C   0  0  0  0  0  3  0  0  0  0  0  0
   10.7880  -13.7570   13.4560 C   0  0  0  0  0  3  0  0  0  0  0  0
   10.0530  -12.5690   13.5310 C   0  0  0  0  0  0  0  0  0  0  0  0
    8.6530  -12.6390   13.5420 C   0  0  0  0  0  3  0  0  0  0  0  0
    5.6040  -13.2830   13.1240 C   0  0  0  0  0  0  0  0  0  0  0  0
    4.4920  -13.2160   13.6560 O   0  0  0  0  0  0  0  0  0  0  0  0
    6.6270  -13.8270   13.8590 N   0  0  0  0  0  0  0  0  0  0  0  0
    6.2720  -14.3570   14.6460 H   0  0  0  0  0  0  0  0  0  0  0  0
    7.2320  -14.7850   10.8450 C   0  0  0  0  0  1  0  0  0  0  0  0
    6.4450  -13.5160   10.6750 C   0  0  0  0  0  0  0  0  0  0  0  0
    6.4030  -12.9930    9.3650 C   0  0  0  0  0  3  0  0  0  0  0  0
    5.5860  -11.9120    9.0410 C   0  0  0  0  0  3  0  0  0  0  0  0
    4.8110  -11.3180   10.0240 C   0  0  0  0  0  3  0  0  0  0  0  0
    4.8910  -11.7760   11.3390 C   0  0  0  0  0  3  0  0  0  0  0  0
    5.7260  -12.8550   11.6950 C   0  0  0  0  0  0  0  0  0  0  0  0
    9.7130  -10.2230   13.9300 N   0  0  0  0  0  0  0  0  0  0  0  0
   10.0170   -9.5040   14.5700 H   0  0  0  0  0  0  0  0  0  0  0  0
    8.7900   -9.8250   12.9660 C   0  0  0  0  0  0  0  0  0  0  0  0
    7.6980   -9.1610   13.3730 N   0  0  0  0  0  0  0  0  0  0  0  0
    6.8390   -8.7900   12.4260 C   0  0  0  0  0  3  0  0  0  0  0  0
    6.9680   -9.0210   11.1200 N   0  0  0  0  0  0  0  0  0  0  0  0
    8.0650   -9.6580   10.6770 C   0  0  0  0  0  0  0  0  0  0  0  0
    8.2880   -9.9250    9.3040 C   0  0  0  0  0  0  0  0  0  0  0  0
    9.4500  -10.6020    8.8820 C   0  0  0  0  0  3  0  0  0  0  0  0
   10.4030  -11.0160    9.7990 C   0  0  0  0  0  3  0  0  0  0  0  0
   10.2050  -10.7510   11.1440 C   0  0  0  0  0  3  0  0  0  0  0  0
    9.0410  -10.0860   11.6010 C   0  0  0  0  0  0  0  0  0  0  0  0
    7.2900   -9.4590    8.2760 C   0  0  0  0  0  0  0  0  0  0  0  0
    6.2130   -8.7160    8.6970 N   0  0  0  0  0  0  0  0  0  0  0  0
    7.3620   -9.7040    7.0810 O   0  0  0  0  0  0  0  0  0  0  0  0
    5.5660   -8.4370    7.9710 H   0  0  0  0  0  0  0  0  0  0  0  0
    6.0230   -8.4060    9.6340 H   0  0  0  0  0  0  0  0  0  0  0  0
  1 19  1  0  0  0  0
  2 10  1  0  0  0  0
  3  2  1  0  0  0  0
  4  5  1  0  0  0  0
  4  3  2  0  0  0  0
  5  6  2  0  0  0  0
  6  7  1  0  0  0  0
  6  1  1  0  0  0  0
  7  2  2  0  0  0  0
  8  9  2  0  0  0  0
  8 10  1  0  0  0  0
 10 11  1  0  0  0  0
 13 12  1  0  0  0  0
 13 18  1  0  0  0  0
 14 13  2  0  0  0  0
 15 14  1  0  0  0  0
 15 16  2  0  0  0  0
 16 17  1  0  0  0  0
 17 18  2  0  0  0  0
 18  8  1  0  0  0  0
 19 20  1  0  0  0  0
 21 22  1  0  0  0  0
 21 19  1  0  0  0  0
 23 22  2  0  0  0  0
 24 23  1  0  0  0  0
 25 24  2  0  0  0  0
 25 30  1  0  0  0  0
 26 25  1  0  0  0  0
 27 26  2  0  0  0  0
 27 28  1  0  0  0  0
 28 29  2  0  0  0  0
 29 30  1  0  0  0  0
 30 21  2  0  0  0  0
 31 32  1  0  0  0  0
 31 26  1  0  0  0  0
 32 35  1  0  0  0  0
 33 31  2  0  0  0  0
 34 32  1  0  0  0  0
M  END
>  <minimizedAffinity>
5.86759806

$$$$
