REMARK  Name = 
REMARK  7 active torsions:
REMARK  status: ('A' for Active; 'I' for Inactive)
REMARK    1  A    between atoms: C_1  and  C_2
REMARK    2  A    between atoms: C_7  and  C_8
REMARK    3  A    between atoms: N_10  and  C_11
REMARK    4  A    between atoms: C_15  and  C_16
REMARK    5  A    between atoms: C_16  and  N_17
REMARK    6  A    between atoms: N_17  and  C_18
REMARK    7  A    between atoms: C_23  and  C_24
REMARK                            x       y       z     vdW  Elec       q    Type
REMARK                         _______ _______ _______ _____ _____    ______ ____
ROOT
ATOM      1  C   UNL     1       6.427  -0.240   1.574  0.00  0.00    +0.138 C 
ENDROOT
BRANCH   1   6
ATOM      2  C   UNL     1       3.375   1.235  -0.144  0.00  0.00    +0.034 A 
ATOM      3  C   UNL     1       3.215   0.394  -1.242  0.00  0.00    +0.023 A 
ATOM      4  C   UNL     1       4.148  -0.622  -1.474  0.00  0.00    +0.002 A 
ATOM      5  C   UNL     1       5.204  -0.829  -0.580  0.00  0.00    +0.005 A 
ATOM      6  C   UNL     1       5.362   0.008   0.529  0.00  0.00    -0.029 A 
ATOM      7  C   UNL     1       4.484   1.088   0.693  0.00  0.00    +0.028 A 
BRANCH   2  10
ATOM      8  C   UNL     1       1.075   2.213   0.215  0.00  0.00    +0.249 C 
ATOM      9  O   UNL     1       0.506   3.289   0.422  0.00  0.00    -0.270 OA
ATOM     10  N   UNL     1       2.448   2.208   0.231  0.00  0.00    -0.281 N 
ATOM     11  H   UNL     1       2.812   3.037   0.686  0.00  0.00    +0.155 HD
BRANCH   8  18
ATOM     12  C   UNL     1       1.606  -0.624   1.546  0.00  0.00    +0.044 C 
ATOM     13  C   UNL     1       0.455  -0.274   0.646  0.00  0.00    -0.038 A 
ATOM     14  C   UNL     1      -0.485  -1.304   0.427  0.00  0.00    +0.004 A 
ATOM     15  C   UNL     1      -1.674  -1.068  -0.259  0.00  0.00    +0.000 A 
ATOM     16  C   UNL     1      -1.938   0.197  -0.761  0.00  0.00    +0.001 A 
ATOM     17  C   UNL     1      -0.990   1.210  -0.616  0.00  0.00    +0.013 A 
ATOM     18  C   UNL     1       0.229   0.989   0.057  0.00  0.00    +0.040 A 
ENDBRANCH   8  18
ENDBRANCH   2  10
ENDBRANCH   1   6
BRANCH   1  19
ATOM     19  N   UNL     1       7.456   0.768   1.433  0.00  0.00    -0.324 N 
ATOM     20  H   UNL     1       7.534   1.148   0.501  0.00  0.00    +0.148 HD
BRANCH  19  21
ATOM     21  C   UNL     1       7.757   1.645   2.472  0.00  0.00    +0.130 A 
ATOM     22  N   UNL     1       7.100   1.499   3.632  0.00  0.00    -0.220 NA
ATOM     23  C   UNL     1       7.416   2.350   4.607  0.00  0.00    +0.223 A 
ATOM     24  N   UNL     1       8.319   3.327   4.529  0.00  0.00    -0.235 NA
ATOM     25  C   UNL     1       9.015   3.480   3.390  0.00  0.00    +0.088 A 
ATOM     26  C   UNL     1      10.006   4.480   3.232  0.00  0.00    +0.063 A 
ATOM     27  C   UNL     1      10.709   4.611   2.017  0.00  0.00    +0.015 A 
ATOM     28  C   UNL     1      10.452   3.761   0.953  0.00  0.00    +0.002 A 
ATOM     29  C   UNL     1       9.495   2.771   1.097  0.00  0.00    +0.013 A 
ATOM     30  C   UNL     1       8.761   2.623   2.299  0.00  0.00    +0.041 A 
BRANCH  26  31
ATOM     31  C   UNL     1      10.336   5.399   4.380  0.00  0.00    +0.244 C 
ATOM     32  N   UNL     1      11.164   6.470   4.145  0.00  0.00    -0.325 N 
ATOM     33  O   UNL     1       9.925   5.254   5.522  0.00  0.00    -0.270 OA
ATOM     34  H   UNL     1      11.364   7.050   4.950  0.00  0.00    +0.145 HD
ATOM     35  H   UNL     1      11.561   6.745   3.263  0.00  0.00    +0.145 HD
ENDBRANCH  26  31
ENDBRANCH  19  21
ENDBRANCH   1  19
TORSDOF 6
