
 OpenBabel10152419493D

 38 41  0  0  0  0  0  0  0  0999 V2000
    1.3560   -6.1330  -27.3470 C   0  0  0  0  0  0  0  0  0  0  0  0
    0.2600   -6.1300  -28.2110 C   0  0  0  0  0  3  0  0  0  0  0  0
   -1.0290   -6.2330  -27.6970 C   0  0  0  0  0  3  0  0  0  0  0  0
   -1.2230   -6.3030  -26.3190 C   0  0  0  0  0  3  0  0  0  0  0  0
   -0.1470   -6.1950  -25.4250 C   0  0  0  0  0  0  0  0  0  0  0  0
    1.1470   -6.1030  -25.9620 C   0  0  0  0  0  3  0  0  0  0  0  0
    3.5940   -7.1690  -27.8810 C   0  0  0  0  0  0  0  0  0  0  0  0
    4.7140   -6.9780  -28.3490 O   0  0  0  0  0  0  0  0  0  0  0  0
    2.6320   -6.1830  -27.9360 N   0  0  0  0  0  0  0  0  0  0  0  0
    2.8760   -5.4450  -28.5870 H   0  0  0  0  0  0  0  0  0  0  0  0
    2.7740  -11.0800  -26.3880 C   0  0  0  0  0  0  0  0  0  0  0  0
    2.7610   -9.9890  -25.5210 C   0  0  0  0  0  3  0  0  0  0  0  0
    2.9920   -8.7070  -26.0210 C   0  0  0  0  0  0  0  0  0  0  0  0
    2.9710   -7.6780  -25.1610 F   0  0  0  0  0  0  0  0  0  0  0  0
    3.2590   -8.5050  -27.3730 C   0  0  0  0  0  0  0  0  0  0  0  0
    3.2140   -9.5860  -28.2420 C   0  0  0  0  0  0  0  0  0  0  0  0
    3.4710   -9.4300  -29.5480 F   0  0  0  0  0  0  0  0  0  0  0  0
    2.9730  -10.8690  -27.7560 C   0  0  0  0  0  3  0  0  0  0  0  0
    3.2250  -12.8040  -24.8200 C   0  0  0  0  0  1  0  0  0  0  0  0
    2.5970  -12.3860  -26.0280 O   0  0  0  0  0  0  0  0  0  0  0  0
   -0.3630   -6.2200  -23.9190 C   0  0  0  0  0  2  0  0  0  0  0  0
   -1.6820   -6.7200  -23.5720 N   0  0  0  0  0  0  0  0  0  0  0  0
   -2.4870   -6.3440  -24.0430 H   0  0  0  0  0  0  0  0  0  0  0  0
   -1.7810   -7.8850  -22.8250 C   0  0  0  0  0  0  0  0  0  0  0  0
   -1.8070   -7.7410  -21.4880 N   0  0  0  0  0  0  0  0  0  0  0  0
   -1.5960   -8.8350  -20.7600 C   0  0  0  0  0  3  0  0  0  0  0  0
   -1.2760  -10.0360  -21.2410 N   0  0  0  0  0  0  0  0  0  0  0  0
   -1.2850  -10.1950  -22.5790 C   0  0  0  0  0  0  0  0  0  0  0  0
   -0.9280  -11.4110  -23.1720 C   0  0  0  0  0  0  0  0  0  0  0  0
   -1.0110  -11.6420  -24.5520 C   0  0  0  0  0  3  0  0  0  0  0  0
   -1.4010  -10.6140  -25.3930 C   0  0  0  0  0  3  0  0  0  0  0  0
   -1.6690   -9.3620  -24.8460 C   0  0  0  0  0  3  0  0  0  0  0  0
   -1.6100   -9.1380  -23.4430 C   0  0  0  0  0  0  0  0  0  0  0  0
   -0.3290  -12.4910  -22.3660 C   0  0  0  0  0  0  0  0  0  0  0  0
   -1.1070  -12.9580  -21.3420 N   0  0  0  0  0  0  0  0  0  0  0  0
    0.8270  -12.8540  -22.5320 O   0  0  0  0  0  0  0  0  0  0  0  0
   -0.7250  -13.6690  -20.7340 H   0  0  0  0  0  0  0  0  0  0  0  0
   -2.0550  -12.6410  -21.1900 H   0  0  0  0  0  0  0  0  0  0  0  0
  1  6  1  0  0  0  0
  2  3  1  0  0  0  0
  2  1  2  0  0  0  0
  3  4  2  0  0  0  0
  4  5  1  0  0  0  0
  5 21  1  0  0  0  0
  6  5  2  0  0  0  0
  7 15  1  0  0  0  0
  8  7  2  0  0  0  0
  9  7  1  0  0  0  0
  9  1  1  0  0  0  0
 10  9  1  0  0  0  0
 11 20  1  0  0  0  0
 11 12  1  0  0  0  0
 13 12  2  0  0  0  0
 13 14  1  0  0  0  0
 15 13  1  0  0  0  0
 16 18  1  0  0  0  0
 16 15  2  0  0  0  0
 17 16  1  0  0  0  0
 18 11  2  0  0  0  0
 20 19  1  0  0  0  0
 21 22  1  0  0  0  0
 22 24  1  0  0  0  0
 23 22  1  0  0  0  0
 24 25  1  0  0  0  0
 25 26  2  0  0  0  0
 27 26  1  0  0  0  0
 28 27  2  0  0  0  0
 29 28  1  0  0  0  0
 29 34  1  0  0  0  0
 30 29  2  0  0  0  0
 31 32  2  0  0  0  0
 31 30  1  0  0  0  0
 32 33  1  0  0  0  0
 33 24  2  0  0  0  0
 33 28  1  0  0  0  0
 34 35  1  0  0  0  0
 35 38  1  0  0  0  0
 35 37  1  0  0  0  0
 36 34  2  0  0  0  0
M  END
>  <minimizedAffinity>
-8.4698267

$$$$
