
 OpenBabel10152419493D

 38 41  0  0  0  0  0  0  0  0999 V2000
    1.8250   -6.3210  -28.5300 C   0  0  0  0  0  0  0  0  0  0  0  0
    1.6620   -5.0390  -28.0050 C   0  0  0  0  0  3  0  0  0  0  0  0
    0.6510   -4.7890  -27.0820 C   0  0  0  0  0  3  0  0  0  0  0  0
   -0.1730   -5.8290  -26.6580 C   0  0  0  0  0  3  0  0  0  0  0  0
    0.0410   -7.1500  -27.0850 C   0  0  0  0  0  0  0  0  0  0  0  0
    1.0580   -7.3790  -28.0250 C   0  0  0  0  0  3  0  0  0  0  0  0
    3.8510   -7.3080  -29.6650 C   0  0  0  0  0  0  0  0  0  0  0  0
    4.6430   -7.2020  -30.5980 O   0  0  0  0  0  0  0  0  0  0  0  0
    2.7610   -6.4700  -29.5700 N   0  0  0  0  0  0  0  0  0  0  0  0
    2.5810   -5.9740  -30.4350 H   0  0  0  0  0  0  0  0  0  0  0  0
    4.4820  -10.5530  -26.9690 C   0  0  0  0  0  0  0  0  0  0  0  0
    4.6320   -9.2410  -26.5240 C   0  0  0  0  0  3  0  0  0  0  0  0
    4.3860   -8.1830  -27.3980 C   0  0  0  0  0  0  0  0  0  0  0  0
    4.5370   -6.9320  -26.9380 F   0  0  0  0  0  0  0  0  0  0  0  0
    4.0170   -8.4190  -28.7200 C   0  0  0  0  0  0  0  0  0  0  0  0
    3.8140   -9.7250  -29.1440 C   0  0  0  0  0  0  0  0  0  0  0  0
    3.4630   -9.9920  -30.4100 F   0  0  0  0  0  0  0  0  0  0  0  0
    4.0440  -10.7900  -28.2760 C   0  0  0  0  0  3  0  0  0  0  0  0
    3.5870  -12.3010  -25.6360 C   0  0  0  0  0  1  0  0  0  0  0  0
    4.7210  -11.6780  -26.2310 O   0  0  0  0  0  0  0  0  0  0  0  0
   -0.8270   -8.2940  -26.5840 C   0  0  0  0  0  2  0  0  0  0  0  0
   -1.1140   -8.1720  -25.1650 N   0  0  0  0  0  0  0  0  0  0  0  0
   -1.7370   -7.4460  -24.8530 H   0  0  0  0  0  0  0  0  0  0  0  0
   -0.7660   -9.2150  -24.3190 C   0  0  0  0  0  0  0  0  0  0  0  0
   -0.2920  -10.3290  -24.9040 N   0  0  0  0  0  0  0  0  0  0  0  0
   -0.2420  -11.4280  -24.1540 C   0  0  0  0  0  3  0  0  0  0  0  0
   -0.7020  -11.5380  -22.9080 N   0  0  0  0  0  0  0  0  0  0  0  0
   -1.1430  -10.4160  -22.3050 C   0  0  0  0  0  0  0  0  0  0  0  0
   -1.6740  -10.4440  -21.0110 C   0  0  0  0  0  0  0  0  0  0  0  0
   -2.0590   -9.2880  -20.3180 C   0  0  0  0  0  3  0  0  0  0  0  0
   -1.9780   -8.0580  -20.9470 C   0  0  0  0  0  3  0  0  0  0  0  0
   -1.5460   -8.0040  -22.2690 C   0  0  0  0  0  3  0  0  0  0  0  0
   -1.1310   -9.1760  -22.9600 C   0  0  0  0  0  0  0  0  0  0  0  0
   -1.9640  -11.7290  -20.3470 C   0  0  0  0  0  0  0  0  0  0  0  0
   -0.8740  -12.3890  -19.8490 N   0  0  0  0  0  0  0  0  0  0  0  0
   -3.0840  -12.2180  -20.3510 O   0  0  0  0  0  0  0  0  0  0  0  0
   -1.0140  -13.2940  -19.4210 H   0  0  0  0  0  0  0  0  0  0  0  0
    0.0570  -11.9950  -19.8660 H   0  0  0  0  0  0  0  0  0  0  0  0
  1  6  2  0  0  0  0
  1  2  1  0  0  0  0
  2  3  2  0  0  0  0
  3  4  1  0  0  0  0
  5  4  2  0  0  0  0
  5 21  1  0  0  0  0
  6  5  1  0  0  0  0
  7  9  1  0  0  0  0
  7 15  1  0  0  0  0
  8  7  2  0  0  0  0
  9  1  1  0  0  0  0
 10  9  1  0  0  0  0
 11 12  1  0  0  0  0
 11 20  1  0  0  0  0
 13 14  1  0  0  0  0
 13 12  2  0  0  0  0
 15 13  1  0  0  0  0
 16 15  2  0  0  0  0
 16 18  1  0  0  0  0
 17 16  1  0  0  0  0
 18 11  2  0  0  0  0
 20 19  1  0  0  0  0
 21 22  1  0  0  0  0
 22 23  1  0  0  0  0
 22 24  1  0  0  0  0
 24 33  1  0  0  0  0
 25 24  2  0  0  0  0
 25 26  1  0  0  0  0
 26 27  2  0  0  0  0
 27 28  1  0  0  0  0
 28 29  1  0  0  0  0
 29 34  1  0  0  0  0
 29 30  2  0  0  0  0
 31 30  1  0  0  0  0
 32 31  2  0  0  0  0
 33 28  2  0  0  0  0
 33 32  1  0  0  0  0
 34 35  1  0  0  0  0
 35 37  1  0  0  0  0
 36 34  2  0  0  0  0
 38 35  1  0  0  0  0
M  END
>  <minimizedAffinity>
-9.36532211

$$$$
