REMARK  Name = 
REMARK  8 active torsions:
REMARK  status: ('A' for Active; 'I' for Inactive)
REMARK    1  A    between atoms: C_1  and  O_2
REMARK    2  A    between atoms: O_2  and  C_3
REMARK    3  A    between atoms: C_7  and  C_8
REMARK    4  A    between atoms: N_10  and  C_11
REMARK    5  A    between atoms: C_15  and  C_16
REMARK    6  A    between atoms: C_16  and  N_17
REMARK    7  A    between atoms: N_17  and  C_18
REMARK    8  A    between atoms: C_23  and  C_24
REMARK                            x       y       z     vdW  Elec       q    Type
REMARK                         _______ _______ _______ _____ _____    ______ ____
ROOT
ATOM      1  C   UNL     1       3.857   5.618   0.320  0.00  0.00    +0.034 A 
ATOM      2  C   UNL     1       5.003   5.785   1.098  0.00  0.00    +0.023 A 
ATOM      3  C   UNL     1       6.067   4.898   0.967  0.00  0.00    +0.002 A 
ATOM      4  C   UNL     1       5.999   3.866   0.034  0.00  0.00    +0.005 A 
ATOM      5  C   UNL     1       4.906   3.743  -0.839  0.00  0.00    -0.029 A 
ATOM      6  C   UNL     1       3.838   4.640  -0.684  0.00  0.00    +0.028 A 
ENDROOT
BRANCH   1   9
ATOM      7  C   UNL     1       1.410   6.213   0.480  0.00  0.00    +0.254 C 
ATOM      8  O   UNL     1       0.596   7.116   0.654  0.00  0.00    -0.270 OA
ATOM      9  N   UNL     1       2.762   6.451   0.610  0.00  0.00    -0.281 N 
ATOM     10  H   UNL     1       2.954   7.329   1.079  0.00  0.00    +0.155 HD
BRANCH   7  15
ATOM     11  C   UNL     1       0.099   2.225  -0.276  0.00  0.00    +0.126 A 
ATOM     12  C   UNL     1       0.844   2.506   0.868  0.00  0.00    +0.085 A 
ATOM     13  C   UNL     1       1.237   3.818   1.131  0.00  0.00    +0.142 A 
ATOM     14  F   UNL     1       1.951   4.056   2.241  0.00  0.00    -0.204 F 
ATOM     15  C   UNL     1       0.916   4.850   0.252  0.00  0.00    +0.107 A 
ATOM     16  C   UNL     1       0.126   4.576  -0.856  0.00  0.00    +0.142 A 
ATOM     17  F   UNL     1      -0.199   5.542  -1.726  0.00  0.00    -0.204 F 
ATOM     18  C   UNL     1      -0.283   3.271  -1.122  0.00  0.00    +0.085 A 
BRANCH  11  20
ATOM     19  C   UNL     1       0.311  -0.128  -0.046  0.00  0.00    +0.277 C 
ATOM     20  O   UNL     1      -0.321   0.986  -0.669  0.00  0.00    -0.495 OA
ENDBRANCH  11  20
ENDBRANCH   7  15
ENDBRANCH   1   9
BRANCH   5  21
ATOM     21  C   UNL     1       4.854   2.647  -1.893  0.00  0.00    +0.138 C 
BRANCH  21  22
ATOM     22  N   UNL     1       5.870   2.832  -2.914  0.00  0.00    -0.324 N 
ATOM     23  H   UNL     1       5.649   3.376  -3.731  0.00  0.00    +0.148 HD
BRANCH  22  24
ATOM     24  C   UNL     1       7.186   2.510  -2.615  0.00  0.00    +0.130 A 
ATOM     25  N   UNL     1       7.381   1.393  -1.892  0.00  0.00    -0.220 NA
ATOM     26  C   UNL     1       8.583   1.233  -1.343  0.00  0.00    +0.223 A 
ATOM     27  N   UNL     1       9.575   2.123  -1.376  0.00  0.00    -0.235 NA
ATOM     28  C   UNL     1       9.398   3.226  -2.129  0.00  0.00    +0.088 A 
ATOM     29  C   UNL     1      10.372   4.229  -2.194  0.00  0.00    +0.063 A 
ATOM     30  C   UNL     1      10.264   5.346  -3.034  0.00  0.00    +0.015 A 
ATOM     31  C   UNL     1       9.121   5.517  -3.796  0.00  0.00    +0.002 A 
ATOM     32  C   UNL     1       8.090   4.589  -3.682  0.00  0.00    +0.013 A 
ATOM     33  C   UNL     1       8.214   3.443  -2.849  0.00  0.00    +0.041 A 
BRANCH  29  34
ATOM     34  C   UNL     1      11.528   4.212  -1.278  0.00  0.00    +0.244 C 
ATOM     35  N   UNL     1      11.224   4.341   0.050  0.00  0.00    -0.325 N 
ATOM     36  O   UNL     1      12.678   4.203  -1.692  0.00  0.00    -0.270 OA
ATOM     37  H   UNL     1      11.984   4.377   0.715  0.00  0.00    +0.145 HD
ATOM     38  H   UNL     1      10.273   4.372   0.391  0.00  0.00    +0.145 HD
ENDBRANCH  29  34
ENDBRANCH  22  24
ENDBRANCH  21  22
ENDBRANCH   5  21
TORSDOF 7
