
 OpenBabel10152419513D

 37 40  0  0  0  0  0  0  0  0999 V2000
    0.3750  -12.6000  -23.5980 C   0  0  0  0  0  0  0  0  0  0  0  0
   -0.5480  -12.8920  -24.6030 C   0  0  0  0  0  3  0  0  0  0  0  0
   -0.3370  -12.4160  -25.8920 C   0  0  0  0  0  3  0  0  0  0  0  0
    0.8120  -11.6790  -26.1820 C   0  0  0  0  0  3  0  0  0  0  0  0
    1.8120  -11.4690  -25.2190 C   0  0  0  0  0  0  0  0  0  0  0  0
    1.5800  -11.9580  -23.9250 C   0  0  0  0  0  3  0  0  0  0  0  0
   -0.5180  -12.2000  -21.2730 C   0  0  0  0  0  0  0  0  0  0  0  0
   -0.4230  -12.6080  -20.1160 O   0  0  0  0  0  0  0  0  0  0  0  0
    0.0320  -12.9590  -22.2840 N   0  0  0  0  0  0  0  0  0  0  0  0
    0.1720  -13.9250  -22.0130 H   0  0  0  0  0  0  0  0  0  0  0  0
   -2.0890   -9.0660  -22.3270 C   0  0  0  0  0  0  0  0  0  0  0  0
   -1.2350  -10.1410  -22.6710 C   0  0  0  0  0  3  0  0  0  0  0  0
   -1.2480  -10.9980  -21.5860 C   0  0  0  0  0  0  0  0  0  0  0  0
   -2.2320  -10.5060  -20.7770 N   0  0  0  0  0  0  0  0  0  0  0  0
   -2.7160   -9.3150  -21.1700 N   0  0  0  0  0  0  0  0  0  0  0  0
   -2.5800  -10.9190  -19.9170 H   0  0  0  0  0  0  0  0  0  0  0  0
   -3.8310   -7.5860  -23.3900 C   0  0  0  0  0  1  0  0  0  0  0  0
   -2.3410   -7.7830  -23.0810 C   0  0  0  0  0  3  0  0  0  0  0  0
   -1.8290   -6.5430  -22.3370 C   0  0  0  0  0  1  0  0  0  0  0  0
    3.0680  -10.6640  -25.5280 C   0  0  0  0  0  2  0  0  0  0  0  0
    2.8800   -9.2390  -25.3200 N   0  0  0  0  0  0  0  0  0  0  0  0
    3.1350   -8.8390  -24.4330 H   0  0  0  0  0  0  0  0  0  0  0  0
    2.6590   -8.4280  -26.4260 C   0  0  0  0  0  0  0  0  0  0  0  0
    3.7340   -8.1260  -27.1760 N   0  0  0  0  0  0  0  0  0  0  0  0
    3.6250   -7.0760  -27.9880 C   0  0  0  0  0  3  0  0  0  0  0  0
    2.5820   -6.2470  -28.0420 N   0  0  0  0  0  0  0  0  0  0  0  0
    1.4870   -6.5790  -27.3310 C   0  0  0  0  0  0  0  0  0  0  0  0
    0.3630   -5.7480  -27.2860 C   0  0  0  0  0  0  0  0  0  0  0  0
   -0.8360   -6.1100  -26.6550 C   0  0  0  0  0  3  0  0  0  0  0  0
   -0.9100   -7.3170  -25.9810 C   0  0  0  0  0  3  0  0  0  0  0  0
    0.2300   -8.1120  -25.8990 C   0  0  0  0  0  3  0  0  0  0  0  0
    1.4360   -7.7460  -26.5560 C   0  0  0  0  0  0  0  0  0  0  0  0
    0.4550   -4.3590  -27.7660 C   0  0  0  0  0  0  0  0  0  0  0  0
    1.2720   -4.1800  -28.8500 N   0  0  0  0  0  0  0  0  0  0  0  0
   -0.0630   -3.4290  -27.1660 O   0  0  0  0  0  0  0  0  0  0  0  0
    1.4090   -3.2430  -29.2020 H   0  0  0  0  0  0  0  0  0  0  0  0
    1.7290   -4.9500  -29.3210 H   0  0  0  0  0  0  0  0  0  0  0  0
  1  9  1  0  0  0  0
  2  1  2  0  0  0  0
  3  2  1  0  0  0  0
  4  3  2  0  0  0  0
  4  5  1  0  0  0  0
  5  6  2  0  0  0  0
  6  1  1  0  0  0  0
  7  8  2  0  0  0  0
  9 10  1  0  0  0  0
  9  7  1  0  0  0  0
 11 15  2  0  0  0  0
 12 11  1  0  0  0  0
 12 13  2  0  0  0  0
 13  7  1  0  0  0  0
 13 14  1  0  0  0  0
 14 16  1  0  0  0  0
 15 14  1  0  0  0  0
 17 18  1  0  0  0  0
 18 19  1  0  0  0  0
 18 11  1  0  0  0  0
 20 21  1  0  0  0  0
 20  5  1  0  0  0  0
 21 22  1  0  0  0  0
 23 21  1  0  0  0  0
 24 23  2  0  0  0  0
 25 24  1  0  0  0  0
 26 25  2  0  0  0  0
 26 27  1  0  0  0  0
 27 28  2  0  0  0  0
 27 32  1  0  0  0  0
 28 29  1  0  0  0  0
 29 30  2  0  0  0  0
 30 31  1  0  0  0  0
 32 23  1  0  0  0  0
 32 31  2  0  0  0  0
 33 28  1  0  0  0  0
 33 35  2  0  0  0  0
 34 33  1  0  0  0  0
 36 34  1  0  0  0  0
 37 34  1  0  0  0  0
M  END
>  <minimizedAffinity>
-9.39983654

$$$$
