
 OpenBabel10152419513D

 37 40  0  0  0  0  0  0  0  0999 V2000
   -1.5360  -10.8200  -21.4810 C   0  0  0  0  0  0  0  0  0  0  0  0
   -1.1530  -11.9330  -20.7330 C   0  0  0  0  0  3  0  0  0  0  0  0
   -0.4340  -12.9570  -21.3390 C   0  0  0  0  0  3  0  0  0  0  0  0
   -0.0700  -12.8510  -22.6820 C   0  0  0  0  0  3  0  0  0  0  0  0
   -0.3420  -11.6930  -23.4270 C   0  0  0  0  0  0  0  0  0  0  0  0
   -1.0670  -10.6710  -22.7960 C   0  0  0  0  0  3  0  0  0  0  0  0
   -2.5250   -8.5380  -21.0590 C   0  0  0  0  0  0  0  0  0  0  0  0
   -3.0940   -7.8750  -20.1930 O   0  0  0  0  0  0  0  0  0  0  0  0
   -2.4000   -9.8980  -20.8690 N   0  0  0  0  0  0  0  0  0  0  0  0
   -3.0670  -10.2590  -20.1970 H   0  0  0  0  0  0  0  0  0  0  0  0
   -1.5550   -7.2790  -24.3570 C   0  0  0  0  0  0  0  0  0  0  0  0
   -2.5150   -7.9800  -23.5880 C   0  0  0  0  0  3  0  0  0  0  0  0
   -2.0630   -7.9340  -22.2830 C   0  0  0  0  0  0  0  0  0  0  0  0
   -1.0100   -7.0650  -22.3190 N   0  0  0  0  0  0  0  0  0  0  0  0
   -0.6480   -6.6980  -23.5600 N   0  0  0  0  0  0  0  0  0  0  0  0
   -0.4720   -6.7230  -21.5290 H   0  0  0  0  0  0  0  0  0  0  0  0
   -0.5630   -5.9650  -26.2670 C   0  0  0  0  0  1  0  0  0  0  0  0
   -1.4720   -7.1320  -25.8570 C   0  0  0  0  0  3  0  0  0  0  0  0
   -0.9770   -8.4050  -26.5550 C   0  0  0  0  0  1  0  0  0  0  0  0
    0.0500  -11.5710  -24.8940 C   0  0  0  0  0  2  0  0  0  0  0  0
    1.4860  -11.6560  -25.0950 N   0  0  0  0  0  0  0  0  0  0  0  0
    1.8970  -12.5530  -25.2930 H   0  0  0  0  0  0  0  0  0  0  0  0
    2.1990  -10.4860  -25.3190 C   0  0  0  0  0  0  0  0  0  0  0  0
    1.8400   -9.4130  -24.5910 N   0  0  0  0  0  0  0  0  0  0  0  0
    2.2310   -8.2220  -25.0410 C   0  0  0  0  0  3  0  0  0  0  0  0
    2.8560   -8.0020  -26.1980 N   0  0  0  0  0  0  0  0  0  0  0  0
    3.2620   -9.0780  -26.9000 C   0  0  0  0  0  0  0  0  0  0  0  0
    3.8810   -8.9490  -28.1470 C   0  0  0  0  0  0  0  0  0  0  0  0
    4.4210  -10.0320  -28.8540 C   0  0  0  0  0  3  0  0  0  0  0  0
    4.2870  -11.3110  -28.3410 C   0  0  0  0  0  3  0  0  0  0  0  0
    3.5650  -11.4900  -27.1640 C   0  0  0  0  0  3  0  0  0  0  0  0
    3.0370  -10.3840  -26.4450 C   0  0  0  0  0  0  0  0  0  0  0  0
    3.8390   -7.6610  -28.8600 C   0  0  0  0  0  0  0  0  0  0  0  0
    4.4230   -6.6170  -28.1930 N   0  0  0  0  0  0  0  0  0  0  0  0
    3.2240   -7.5160  -29.9060 O   0  0  0  0  0  0  0  0  0  0  0  0
    4.3900   -5.6980  -28.6120 H   0  0  0  0  0  0  0  0  0  0  0  0
    4.8980   -6.7330  -27.3080 H   0  0  0  0  0  0  0  0  0  0  0  0
  1  9  1  0  0  0  0
  1  2  1  0  0  0  0
  3  2  2  0  0  0  0
  4  3  1  0  0  0  0
  5  6  1  0  0  0  0
  5  4  2  0  0  0  0
  6  1  2  0  0  0  0
  7  9  1  0  0  0  0
  7  8  2  0  0  0  0
  9 10  1  0  0  0  0
 11 12  1  0  0  0  0
 11 15  2  0  0  0  0
 12 13  2  0  0  0  0
 13  7  1  0  0  0  0
 14 13  1  0  0  0  0
 14 16  1  0  0  0  0
 15 14  1  0  0  0  0
 17 18  1  0  0  0  0
 18 11  1  0  0  0  0
 19 18  1  0  0  0  0
 20  5  1  0  0  0  0
 21 20  1  0  0  0  0
 22 21  1  0  0  0  0
 23 21  1  0  0  0  0
 23 24  1  0  0  0  0
 25 24  2  0  0  0  0
 26 25  1  0  0  0  0
 27 32  1  0  0  0  0
 27 26  2  0  0  0  0
 28 27  1  0  0  0  0
 29 30  1  0  0  0  0
 29 28  2  0  0  0  0
 30 31  2  0  0  0  0
 31 32  1  0  0  0  0
 32 23  2  0  0  0  0
 33 34  1  0  0  0  0
 33 28  1  0  0  0  0
 34 37  1  0  0  0  0
 35 33  2  0  0  0  0
 36 34  1  0  0  0  0
M  END
>  <minimizedAffinity>
-9.57029819

$$$$
