
 OpenBabel10152419513D

 37 40  0  0  0  0  0  0  0  0999 V2000
    1.6350   -6.3150  -28.2550 C   0  0  0  0  0  0  0  0  0  0  0  0
    1.3480   -4.9850  -27.9460 C   0  0  0  0  0  3  0  0  0  0  0  0
    0.4130   -4.6920  -26.9600 C   0  0  0  0  0  3  0  0  0  0  0  0
   -0.2070   -5.7280  -26.2610 C   0  0  0  0  0  3  0  0  0  0  0  0
    0.1460   -7.0700  -26.4710 C   0  0  0  0  0  0  0  0  0  0  0  0
    1.0920   -7.3440  -27.4700 C   0  0  0  0  0  3  0  0  0  0  0  0
    3.6540   -7.2340  -29.4560 C   0  0  0  0  0  0  0  0  0  0  0  0
    4.3680   -7.0380  -30.4400 O   0  0  0  0  0  0  0  0  0  0  0  0
    2.4570   -6.5550  -29.3680 N   0  0  0  0  0  0  0  0  0  0  0  0
    2.1370   -6.2140  -30.2670 H   0  0  0  0  0  0  0  0  0  0  0  0
    4.3380   -9.9470  -27.0960 C   0  0  0  0  0  0  0  0  0  0  0  0
    3.9810   -9.5830  -28.4170 C   0  0  0  0  0  3  0  0  0  0  0  0
    4.0120   -8.2020  -28.4510 C   0  0  0  0  0  0  0  0  0  0  0  0
    4.5660   -7.8450  -27.2540 N   0  0  0  0  0  0  0  0  0  0  0  0
    4.7220   -8.8700  -26.3990 N   0  0  0  0  0  0  0  0  0  0  0  0
    4.8170   -6.9090  -26.9510 H   0  0  0  0  0  0  0  0  0  0  0  0
    3.0330  -11.5870  -25.6960 C   0  0  0  0  0  1  0  0  0  0  0  0
    4.3350  -11.3170  -26.4620 C   0  0  0  0  0  3  0  0  0  0  0  0
    4.5470  -12.4460  -27.4770 C   0  0  0  0  0  1  0  0  0  0  0  0
   -0.5280   -8.2070  -25.7130 C   0  0  0  0  0  2  0  0  0  0  0  0
   -0.3540   -8.0980  -24.2750 N   0  0  0  0  0  0  0  0  0  0  0  0
    0.2520   -7.3810  -23.9120 H   0  0  0  0  0  0  0  0  0  0  0  0
   -1.2480   -8.7580  -23.4430 C   0  0  0  0  0  0  0  0  0  0  0  0
   -2.0930   -7.9880  -22.7340 N   0  0  0  0  0  0  0  0  0  0  0  0
   -2.6780   -8.5510  -21.6790 C   0  0  0  0  0  3  0  0  0  0  0  0
   -2.4180   -9.7720  -21.2130 N   0  0  0  0  0  0  0  0  0  0  0  0
   -1.6140  -10.5610  -21.9510 C   0  0  0  0  0  0  0  0  0  0  0  0
   -1.2450  -11.8400  -21.5200 C   0  0  0  0  0  0  0  0  0  0  0  0
   -0.5070  -12.7340  -22.3090 C   0  0  0  0  0  3  0  0  0  0  0  0
   -0.0550  -12.3270  -23.5530 C   0  0  0  0  0  3  0  0  0  0  0  0
   -0.2970  -11.0180  -23.9600 C   0  0  0  0  0  3  0  0  0  0  0  0
   -1.0610  -10.1240  -23.1620 C   0  0  0  0  0  0  0  0  0  0  0  0
   -1.4790  -12.2410  -20.1230 C   0  0  0  0  0  0  0  0  0  0  0  0
   -2.7930  -12.4480  -19.7980 N   0  0  0  0  0  0  0  0  0  0  0  0
   -0.5800  -12.2680  -19.2950 O   0  0  0  0  0  0  0  0  0  0  0  0
   -3.0220  -12.6860  -18.8430 H   0  0  0  0  0  0  0  0  0  0  0  0
   -3.5380  -12.3870  -20.4780 H   0  0  0  0  0  0  0  0  0  0  0  0
  1  2  2  0  0  0  0
  1  6  1  0  0  0  0
  2  3  1  0  0  0  0
  3  4  2  0  0  0  0
  5  4  1  0  0  0  0
  5 20  1  0  0  0  0
  6  5  2  0  0  0  0
  7  9  1  0  0  0  0
  7 13  1  0  0  0  0
  8  7  2  0  0  0  0
  9  1  1  0  0  0  0
 10  9  1  0  0  0  0
 11 18  1  0  0  0  0
 11 15  2  0  0  0  0
 12 11  1  0  0  0  0
 13 12  2  0  0  0  0
 13 14  1  0  0  0  0
 14 16  1  0  0  0  0
 14 15  1  0  0  0  0
 18 17  1  0  0  0  0
 19 18  1  0  0  0  0
 20 21  1  0  0  0  0
 21 22  1  0  0  0  0
 21 23  1  0  0  0  0
 23 32  2  0  0  0  0
 23 24  1  0  0  0  0
 24 25  2  0  0  0  0
 25 26  1  0  0  0  0
 27 28  1  0  0  0  0
 27 26  2  0  0  0  0
 28 33  1  0  0  0  0
 29 28  2  0  0  0  0
 30 29  1  0  0  0  0
 31 30  2  0  0  0  0
 31 32  1  0  0  0  0
 32 27  1  0  0  0  0
 33 34  1  0  0  0  0
 33 35  2  0  0  0  0
 34 36  1  0  0  0  0
 37 34  1  0  0  0  0
M  END
>  <minimizedAffinity>
-9.86884022

$$$$
