
 OpenBabel10152419513D

 37 40  0  0  0  0  0  0  0  0999 V2000
    1.2980   -6.0290  -28.0160 C   0  0  0  0  0  0  0  0  0  0  0  0
    1.0660   -4.6680  -27.8150 C   0  0  0  0  0  3  0  0  0  0  0  0
    0.0070   -4.2600  -27.0110 C   0  0  0  0  0  3  0  0  0  0  0  0
   -0.7950   -5.2130  -26.3820 C   0  0  0  0  0  3  0  0  0  0  0  0
   -0.5150   -6.5850  -26.4740 C   0  0  0  0  0  0  0  0  0  0  0  0
    0.5580   -6.9750  -27.2900 C   0  0  0  0  0  3  0  0  0  0  0  0
    3.3360   -7.2510  -28.8610 C   0  0  0  0  0  0  0  0  0  0  0  0
    4.2490   -7.1600  -29.6830 O   0  0  0  0  0  0  0  0  0  0  0  0
    2.2700   -6.3830  -28.9660 N   0  0  0  0  0  0  0  0  0  0  0  0
    2.1880   -5.9770  -29.8900 H   0  0  0  0  0  0  0  0  0  0  0  0
    3.2240  -10.1200  -26.5910 C   0  0  0  0  0  0  0  0  0  0  0  0
    3.4060   -9.6610  -27.9180 C   0  0  0  0  0  3  0  0  0  0  0  0
    3.3340   -8.2820  -27.8560 C   0  0  0  0  0  0  0  0  0  0  0  0
    3.3210   -8.0030  -26.5190 N   0  0  0  0  0  0  0  0  0  0  0  0
    3.2000   -9.0890  -25.7360 N   0  0  0  0  0  0  0  0  0  0  0  0
    3.3480   -7.0850  -26.0860 H   0  0  0  0  0  0  0  0  0  0  0  0
    2.7000  -12.5030  -27.2280 C   0  0  0  0  0  1  0  0  0  0  0  0
    3.0770  -11.5380  -26.0950 C   0  0  0  0  0  3  0  0  0  0  0  0
    4.3420  -12.0640  -25.4060 C   0  0  0  0  0  1  0  0  0  0  0  0
   -1.3880   -7.6320  -25.7930 C   0  0  0  0  0  2  0  0  0  0  0  0
   -0.9870   -8.9890  -26.1190 N   0  0  0  0  0  0  0  0  0  0  0  0
   -0.8040   -9.2250  -27.0800 H   0  0  0  0  0  0  0  0  0  0  0  0
   -0.5660   -9.8250  -25.0930 C   0  0  0  0  0  0  0  0  0  0  0  0
   -0.1190  -11.0410  -25.4520 N   0  0  0  0  0  0  0  0  0  0  0  0
   -0.0730  -11.9710  -24.5000 C   0  0  0  0  0  3  0  0  0  0  0  0
   -0.5280  -11.8230  -23.2550 N   0  0  0  0  0  0  0  0  0  0  0  0
   -0.9260  -10.5910  -22.8810 C   0  0  0  0  0  0  0  0  0  0  0  0
   -1.4630  -10.3490  -21.6120 C   0  0  0  0  0  0  0  0  0  0  0  0
   -1.7800   -9.0660  -21.1440 C   0  0  0  0  0  3  0  0  0  0  0  0
   -1.6240   -7.9790  -21.9870 C   0  0  0  0  0  3  0  0  0  0  0  0
   -1.2110   -8.1990  -23.2980 C   0  0  0  0  0  3  0  0  0  0  0  0
   -0.8750   -9.5010  -23.7590 C   0  0  0  0  0  0  0  0  0  0  0  0
   -1.8830  -11.4760  -20.7630 C   0  0  0  0  0  0  0  0  0  0  0  0
   -0.8640  -12.1020  -20.0960 N   0  0  0  0  0  0  0  0  0  0  0  0
   -3.0330  -11.8900  -20.7540 O   0  0  0  0  0  0  0  0  0  0  0  0
   -1.0830  -12.9090  -19.5280 H   0  0  0  0  0  0  0  0  0  0  0  0
    0.0930  -11.7790  -20.1370 H   0  0  0  0  0  0  0  0  0  0  0  0
  1  2  2  0  0  0  0
  1  6  1  0  0  0  0
  2  3  1  0  0  0  0
  3  4  2  0  0  0  0
  5  4  1  0  0  0  0
  5 20  1  0  0  0  0
  6  5  2  0  0  0  0
  7 13  1  0  0  0  0
  8  7  2  0  0  0  0
  9  7  1  0  0  0  0
  9  1  1  0  0  0  0
 10  9  1  0  0  0  0
 11 18  1  0  0  0  0
 11 15  2  0  0  0  0
 12 13  2  0  0  0  0
 12 11  1  0  0  0  0
 13 14  1  0  0  0  0
 14 16  1  0  0  0  0
 14 15  1  0  0  0  0
 17 18  1  0  0  0  0
 18 19  1  0  0  0  0
 21 20  1  0  0  0  0
 21 23  1  0  0  0  0
 22 21  1  0  0  0  0
 23 32  1  0  0  0  0
 24 23  2  0  0  0  0
 24 25  1  0  0  0  0
 25 26  2  0  0  0  0
 26 27  1  0  0  0  0
 27 28  1  0  0  0  0
 28 29  2  0  0  0  0
 28 33  1  0  0  0  0
 30 29  1  0  0  0  0
 31 30  2  0  0  0  0
 32 31  1  0  0  0  0
 32 27  2  0  0  0  0
 33 35  2  0  0  0  0
 33 34  1  0  0  0  0
 34 36  1  0  0  0  0
 37 34  1  0  0  0  0
M  END
>  <minimizedAffinity>
-8.32272243

$$$$
