
 OpenBabel10152419513D

 37 40  0  0  0  0  0  0  0  0999 V2000
   -0.1880  -12.3300  -24.2890 C   0  0  0  0  0  0  0  0  0  0  0  0
   -1.3030  -11.7920  -24.9330 C   0  0  0  0  0  3  0  0  0  0  0  0
   -1.1420  -11.1010  -26.1280 C   0  0  0  0  0  3  0  0  0  0  0  0
    0.1270  -10.9780  -26.6950 C   0  0  0  0  0  3  0  0  0  0  0  0
    1.2480  -11.6070  -26.1290 C   0  0  0  0  0  0  0  0  0  0  0  0
    1.0630  -12.3000  -24.9240 C   0  0  0  0  0  3  0  0  0  0  0  0
   -0.7340  -12.2460  -21.8270 C   0  0  0  0  0  0  0  0  0  0  0  0
   -0.5200  -12.8350  -20.7670 O   0  0  0  0  0  0  0  0  0  0  0  0
   -0.3830  -12.8690  -23.0060 N   0  0  0  0  0  0  0  0  0  0  0  0
   -0.2840  -13.8710  -22.9020 H   0  0  0  0  0  0  0  0  0  0  0  0
   -2.1930   -8.9090  -22.1910 C   0  0  0  0  0  0  0  0  0  0  0  0
   -1.5100   -9.9810  -22.8140 C   0  0  0  0  0  3  0  0  0  0  0  0
   -1.4020  -10.9700  -21.8540 C   0  0  0  0  0  0  0  0  0  0  0  0
   -2.1790  -10.5270  -20.8220 N   0  0  0  0  0  0  0  0  0  0  0  0
   -2.6220   -9.2680  -20.9740 N   0  0  0  0  0  0  0  0  0  0  0  0
   -2.4030  -11.0270  -19.9670 H   0  0  0  0  0  0  0  0  0  0  0  0
   -1.4800   -6.4910  -22.1650 C   0  0  0  0  0  1  0  0  0  0  0  0
   -2.4650   -7.5250  -22.7290 C   0  0  0  0  0  3  0  0  0  0  0  0
   -2.4180   -7.4580  -24.2600 C   0  0  0  0  0  1  0  0  0  0  0  0
    2.6370  -11.4760  -26.7410 C   0  0  0  0  0  2  0  0  0  0  0  0
    3.4750  -10.5320  -26.0230 N   0  0  0  0  0  0  0  0  0  0  0  0
    4.4460  -10.7550  -25.8780 H   0  0  0  0  0  0  0  0  0  0  0  0
    3.0100   -9.2370  -25.8350 C   0  0  0  0  0  0  0  0  0  0  0  0
    2.3080   -9.0060  -24.7120 N   0  0  0  0  0  0  0  0  0  0  0  0
    1.5490   -7.9120  -24.6910 C   0  0  0  0  0  3  0  0  0  0  0  0
    1.3520   -7.0900  -25.7220 N   0  0  0  0  0  0  0  0  0  0  0  0
    2.0950   -7.2910  -26.8280 C   0  0  0  0  0  0  0  0  0  0  0  0
    1.9250   -6.5110  -27.9770 C   0  0  0  0  0  0  0  0  0  0  0  0
    2.7540   -6.6110  -29.1030 C   0  0  0  0  0  3  0  0  0  0  0  0
    3.7550   -7.5680  -29.1260 C   0  0  0  0  0  3  0  0  0  0  0  0
    3.8710   -8.4440  -28.0510 C   0  0  0  0  0  3  0  0  0  0  0  0
    3.0380   -8.3240  -26.9060 C   0  0  0  0  0  0  0  0  0  0  0  0
    0.7360   -5.6540  -28.1150 C   0  0  0  0  0  0  0  0  0  0  0  0
   -0.4480   -6.2580  -27.7840 N   0  0  0  0  0  0  0  0  0  0  0  0
    0.7950   -4.5340  -28.6020 O   0  0  0  0  0  0  0  0  0  0  0  0
   -1.3050   -5.7340  -27.8960 H   0  0  0  0  0  0  0  0  0  0  0  0
   -0.4960   -7.1990  -27.4170 H   0  0  0  0  0  0  0  0  0  0  0  0
  1  9  1  0  0  0  0
  2  1  2  0  0  0  0
  3  2  1  0  0  0  0
  4  5  1  0  0  0  0
  4  3  2  0  0  0  0
  5  6  2  0  0  0  0
  6  1  1  0  0  0  0
  7  8  2  0  0  0  0
  9 10  1  0  0  0  0
  9  7  1  0  0  0  0
 11 15  2  0  0  0  0
 12 11  1  0  0  0  0
 12 13  2  0  0  0  0
 13  7  1  0  0  0  0
 13 14  1  0  0  0  0
 14 16  1  0  0  0  0
 15 14  1  0  0  0  0
 18 11  1  0  0  0  0
 18 17  1  0  0  0  0
 19 18  1  0  0  0  0
 20  5  1  0  0  0  0
 20 21  1  0  0  0  0
 21 22  1  0  0  0  0
 21 23  1  0  0  0  0
 23 24  1  0  0  0  0
 24 25  2  0  0  0  0
 26 25  1  0  0  0  0
 27 26  2  0  0  0  0
 28 27  1  0  0  0  0
 29 28  2  0  0  0  0
 30 29  1  0  0  0  0
 30 31  2  0  0  0  0
 31 32  1  0  0  0  0
 32 27  1  0  0  0  0
 32 23  2  0  0  0  0
 33 28  1  0  0  0  0
 33 34  1  0  0  0  0
 34 37  1  0  0  0  0
 35 33  2  0  0  0  0
 36 34  1  0  0  0  0
M  END
>  <minimizedAffinity>
-8.02733803

$$$$
