
 OpenBabel10152419513D

 37 40  0  0  0  0  0  0  0  0999 V2000
    2.9360   -8.9580  -27.0080 C   0  0  0  0  0  0  0  0  0  0  0  0
    3.1470   -8.2040  -25.8540 C   0  0  0  0  0  3  0  0  0  0  0  0
    2.5930   -8.6190  -24.6480 C   0  0  0  0  0  3  0  0  0  0  0  0
    1.8590   -9.8040  -24.5920 C   0  0  0  0  0  3  0  0  0  0  0  0
    1.7270  -10.6410  -25.7110 C   0  0  0  0  0  0  0  0  0  0  0  0
    2.2950  -10.2040  -26.9180 C   0  0  0  0  0  3  0  0  0  0  0  0
    2.8520   -7.3690  -28.9650 C   0  0  0  0  0  0  0  0  0  0  0  0
    3.1750   -7.2720  -30.1490 O   0  0  0  0  0  0  0  0  0  0  0  0
    3.3720   -8.4100  -28.2250 N   0  0  0  0  0  0  0  0  0  0  0  0
    4.2120   -8.7980  -28.6370 H   0  0  0  0  0  0  0  0  0  0  0  0
    0.5050   -5.1630  -27.2270 C   0  0  0  0  0  0  0  0  0  0  0  0
    1.1130   -6.4390  -27.2860 C   0  0  0  0  0  3  0  0  0  0  0  0
    2.0120   -6.3830  -28.3350 C   0  0  0  0  0  0  0  0  0  0  0  0
    2.0350   -5.0640  -28.6910 N   0  0  0  0  0  0  0  0  0  0  0  0
    1.1000   -4.3180  -28.0790 N   0  0  0  0  0  0  0  0  0  0  0  0
    2.6390   -4.6280  -29.3810 H   0  0  0  0  0  0  0  0  0  0  0  0
   -0.3630   -4.9350  -24.8710 C   0  0  0  0  0  1  0  0  0  0  0  0
   -0.6440   -4.7050  -26.3620 C   0  0  0  0  0  3  0  0  0  0  0  0
   -0.9970   -3.2260  -26.5700 C   0  0  0  0  0  1  0  0  0  0  0  0
    0.9260  -11.9350  -25.6580 C   0  0  0  0  0  2  0  0  0  0  0  0
   -0.4420  -11.7250  -25.2180 N   0  0  0  0  0  0  0  0  0  0  0  0
   -1.1790  -12.2580  -25.6480 H   0  0  0  0  0  0  0  0  0  0  0  0
   -0.6620  -11.0460  -24.0260 C   0  0  0  0  0  0  0  0  0  0  0  0
   -0.5500  -11.7640  -22.8940 N   0  0  0  0  0  0  0  0  0  0  0  0
   -1.1120  -11.2540  -21.8000 C   0  0  0  0  0  3  0  0  0  0  0  0
   -1.8580  -10.1490  -21.7590 N   0  0  0  0  0  0  0  0  0  0  0  0
   -1.9260   -9.4040  -22.8790 C   0  0  0  0  0  0  0  0  0  0  0  0
   -2.7210   -8.2550  -22.9480 C   0  0  0  0  0  0  0  0  0  0  0  0
   -2.7300   -7.3910  -24.0510 C   0  0  0  0  0  3  0  0  0  0  0  0
   -1.9700   -7.7050  -25.1650 C   0  0  0  0  0  3  0  0  0  0  0  0
   -1.2650   -8.9050  -25.1800 C   0  0  0  0  0  3  0  0  0  0  0  0
   -1.2480   -9.7670  -24.0500 C   0  0  0  0  0  0  0  0  0  0  0  0
   -3.7310   -7.9970  -21.9070 C   0  0  0  0  0  0  0  0  0  0  0  0
   -3.2330   -7.9080  -20.6350 N   0  0  0  0  0  0  0  0  0  0  0  0
   -4.9280   -7.9850  -22.1520 O   0  0  0  0  0  0  0  0  0  0  0  0
   -3.8810   -7.7710  -19.8720 H   0  0  0  0  0  0  0  0  0  0  0  0
   -2.2440   -7.9570  -20.4320 H   0  0  0  0  0  0  0  0  0  0  0  0
  1  6  2  0  0  0  0
  1  2  1  0  0  0  0
  2  3  2  0  0  0  0
  3  4  1  0  0  0  0
  5 20  1  0  0  0  0
  5  4  2  0  0  0  0
  6  5  1  0  0  0  0
  7 13  1  0  0  0  0
  7  9  1  0  0  0  0
  8  7  2  0  0  0  0
  9  1  1  0  0  0  0
 10  9  1  0  0  0  0
 11 18  1  0  0  0  0
 12 11  1  0  0  0  0
 13 12  2  0  0  0  0
 14 13  1  0  0  0  0
 14 15  1  0  0  0  0
 15 11  2  0  0  0  0
 16 14  1  0  0  0  0
 18 17  1  0  0  0  0
 19 18  1  0  0  0  0
 20 21  1  0  0  0  0
 21 23  1  0  0  0  0
 22 21  1  0  0  0  0
 23 24  1  0  0  0  0
 24 25  2  0  0  0  0
 25 26  1  0  0  0  0
 27 26  2  0  0  0  0
 28 27  1  0  0  0  0
 28 33  1  0  0  0  0
 29 28  2  0  0  0  0
 30 29  1  0  0  0  0
 31 30  2  0  0  0  0
 31 32  1  0  0  0  0
 32 23  2  0  0  0  0
 32 27  1  0  0  0  0
 33 34  1  0  0  0  0
 34 37  1  0  0  0  0
 34 36  1  0  0  0  0
 35 33  2  0  0  0  0
M  END
>  <minimizedAffinity>
-7.92081451

$$$$
