
 OpenBabel10152419513D

 37 40  0  0  0  0  0  0  0  0999 V2000
    3.3380   -8.8830  -27.0320 C   0  0  0  0  0  0  0  0  0  0  0  0
    3.0680   -8.0260  -25.9660 C   0  0  0  0  0  3  0  0  0  0  0  0
    2.4700   -8.5250  -24.8140 C   0  0  0  0  0  3  0  0  0  0  0  0
    2.1760   -9.8850  -24.7170 C   0  0  0  0  0  3  0  0  0  0  0  0
    2.5410  -10.7890  -25.7270 C   0  0  0  0  0  0  0  0  0  0  0  0
    3.1440  -10.2650  -26.8800 C   0  0  0  0  0  3  0  0  0  0  0  0
    3.1860   -7.3530  -29.0320 C   0  0  0  0  0  0  0  0  0  0  0  0
    3.5790   -7.2340  -30.1920 O   0  0  0  0  0  0  0  0  0  0  0  0
    3.7850   -8.3010  -28.2300 N   0  0  0  0  0  0  0  0  0  0  0  0
    4.6970   -8.5790  -28.5720 H   0  0  0  0  0  0  0  0  0  0  0  0
    0.4090   -5.4530  -27.5890 C   0  0  0  0  0  0  0  0  0  0  0  0
    1.0980   -6.6890  -27.6520 C   0  0  0  0  0  3  0  0  0  0  0  0
    2.1780   -6.4790  -28.4880 C   0  0  0  0  0  0  0  0  0  0  0  0
    2.1860   -5.1290  -28.7000 N   0  0  0  0  0  0  0  0  0  0  0  0
    1.1030   -4.4950  -28.2170 N   0  0  0  0  0  0  0  0  0  0  0  0
    2.8830   -4.5940  -29.2080 H   0  0  0  0  0  0  0  0  0  0  0  0
   -1.2780   -6.1840  -25.8640 C   0  0  0  0  0  1  0  0  0  0  0  0
   -0.9140   -5.1430  -26.9310 C   0  0  0  0  0  3  0  0  0  0  0  0
   -0.9480   -3.7510  -26.2870 C   0  0  0  0  0  1  0  0  0  0  0  0
    2.2210  -12.2750  -25.6300 C   0  0  0  0  0  2  0  0  0  0  0  0
    0.9200  -12.6030  -26.1880 N   0  0  0  0  0  0  0  0  0  0  0  0
    0.8130  -13.4630  -26.6990 H   0  0  0  0  0  0  0  0  0  0  0  0
   -0.1910  -11.8980  -25.7450 C   0  0  0  0  0  0  0  0  0  0  0  0
   -0.7090  -10.9930  -26.5940 N   0  0  0  0  0  0  0  0  0  0  0  0
   -1.5070  -10.0640  -26.0720 C   0  0  0  0  0  3  0  0  0  0  0  0
   -1.7500   -9.9000  -24.7710 N   0  0  0  0  0  0  0  0  0  0  0  0
   -1.2770  -10.8370  -23.9270 C   0  0  0  0  0  0  0  0  0  0  0  0
   -1.4390  -10.7240  -22.5420 C   0  0  0  0  0  0  0  0  0  0  0  0
   -1.0650  -11.7300  -21.6400 C   0  0  0  0  0  3  0  0  0  0  0  0
   -0.4410  -12.8710  -22.1170 C   0  0  0  0  0  3  0  0  0  0  0  0
   -0.1500  -12.9590  -23.4750 C   0  0  0  0  0  3  0  0  0  0  0  0
   -0.5490  -11.9430  -24.3850 C   0  0  0  0  0  0  0  0  0  0  0  0
   -1.8660   -9.4440  -21.9520 C   0  0  0  0  0  0  0  0  0  0  0  0
   -1.1040   -8.3650  -22.3120 N   0  0  0  0  0  0  0  0  0  0  0  0
   -2.7540   -9.3780  -21.1160 O   0  0  0  0  0  0  0  0  0  0  0  0
   -1.3210   -7.4650  -21.9080 H   0  0  0  0  0  0  0  0  0  0  0  0
   -0.3440   -8.4320  -22.9760 H   0  0  0  0  0  0  0  0  0  0  0  0
  1  6  2  0  0  0  0
  1  2  1  0  0  0  0
  2  3  2  0  0  0  0
  3  4  1  0  0  0  0
  5 20  1  0  0  0  0
  5  4  2  0  0  0  0
  6  5  1  0  0  0  0
  7 13  1  0  0  0  0
  7  9  1  0  0  0  0
  8  7  2  0  0  0  0
  9  1  1  0  0  0  0
 10  9  1  0  0  0  0
 11 18  1  0  0  0  0
 12 11  1  0  0  0  0
 13 12  2  0  0  0  0
 14 13  1  0  0  0  0
 14 15  1  0  0  0  0
 15 11  2  0  0  0  0
 16 14  1  0  0  0  0
 18 19  1  0  0  0  0
 18 17  1  0  0  0  0
 21 23  1  0  0  0  0
 21 20  1  0  0  0  0
 22 21  1  0  0  0  0
 23 32  1  0  0  0  0
 24 25  1  0  0  0  0
 24 23  2  0  0  0  0
 25 26  2  0  0  0  0
 26 27  1  0  0  0  0
 27 28  1  0  0  0  0
 28 33  1  0  0  0  0
 28 29  2  0  0  0  0
 30 29  1  0  0  0  0
 31 30  2  0  0  0  0
 32 27  2  0  0  0  0
 32 31  1  0  0  0  0
 33 35  2  0  0  0  0
 34 33  1  0  0  0  0
 34 36  1  0  0  0  0
 37 34  1  0  0  0  0
M  END
>  <minimizedAffinity>
-8.97473145

$$$$
