REMARK  Name = 
REMARK  9 active torsions:
REMARK  status: ('A' for Active; 'I' for Inactive)
REMARK    1  A    between atoms: C_1  and  C_2
REMARK    2  A    between atoms: C_2  and  C_3
REMARK    3  A    between atoms: C_2  and  C_4
REMARK    4  A    between atoms: C_6  and  C_7
REMARK    5  A    between atoms: N_9  and  C_10
REMARK    6  A    between atoms: C_14  and  C_15
REMARK    7  A    between atoms: C_15  and  N_16
REMARK    8  A    between atoms: N_16  and  C_17
REMARK    9  A    between atoms: C_22  and  C_23
REMARK                            x       y       z     vdW  Elec       q    Type
REMARK                         _______ _______ _______ _____ _____    ______ ____
ROOT
ATOM      1  C   UNL     1      -2.465  -4.341  -0.231  0.00  0.00    +0.034 A 
ATOM      2  C   UNL     1      -2.267  -5.608  -0.780  0.00  0.00    +0.023 A 
ATOM      3  C   UNL     1      -1.023  -6.219  -0.673  0.00  0.00    +0.002 A 
ATOM      4  C   UNL     1       0.010  -5.578   0.012  0.00  0.00    +0.005 A 
ATOM      5  C   UNL     1      -0.194  -4.356   0.672  0.00  0.00    -0.029 A 
ATOM      6  C   UNL     1      -1.457  -3.757   0.552  0.00  0.00    +0.028 A 
ENDROOT
BRANCH   1   9
ATOM      7  C   UNL     1      -3.978  -2.356  -0.597  0.00  0.00    +0.266 C 
ATOM      8  O   UNL     1      -5.156  -2.008  -0.516  0.00  0.00    -0.268 OA
ATOM      9  N   UNL     1      -3.683  -3.700  -0.512  0.00  0.00    -0.280 N 
ATOM     10  H   UNL     1      -4.483  -4.287  -0.715  0.00  0.00    +0.155 HD
BRANCH   7  13
ATOM     11  C   UNL     1      -1.077  -0.234  -1.290  0.00  0.00    +0.066 A 
ATOM     12  C   UNL     1      -1.703  -1.489  -1.480  0.00  0.00    +0.057 A 
ATOM     13  C   UNL     1      -2.930  -1.400  -0.850  0.00  0.00    +0.121 A 
ATOM     14  N   UNL     1      -3.044  -0.081  -0.514  0.00  0.00    -0.272 N 
ATOM     15  N   UNL     1      -1.923   0.632  -0.717  0.00  0.00    -0.178 NA
ATOM     16  H   UNL     1      -3.850   0.377  -0.100  0.00  0.00    +0.189 HD
BRANCH  11  18
ATOM     17  C   UNL     1       0.983   1.006  -0.531  0.00  0.00    +0.014 C 
ATOM     18  C   UNL     1       0.329   0.183  -1.649  0.00  0.00    +0.033 C 
ATOM     19  C   UNL     1       1.240  -1.007  -1.976  0.00  0.00    +0.014 C 
ENDBRANCH  11  18
ENDBRANCH   7  13
ENDBRANCH   1   9
BRANCH   5  20
ATOM     20  C   UNL     1       0.929  -3.649   1.420  0.00  0.00    +0.138 C 
BRANCH  20  21
ATOM     21  N   UNL     1       1.377  -4.393   2.584  0.00  0.00    -0.324 N 
ATOM     22  H   UNL     1       0.936  -4.219   3.472  0.00  0.00    +0.148 HD
BRANCH  21  23
ATOM     23  C   UNL     1       2.161  -5.523   2.392  0.00  0.00    +0.130 A 
ATOM     24  N   UNL     1       3.088  -5.455   1.420  0.00  0.00    -0.220 NA
ATOM     25  C   UNL     1       3.575  -6.610   0.971  0.00  0.00    +0.223 A 
ATOM     26  N   UNL     1       3.147  -7.820   1.332  0.00  0.00    -0.235 NA
ATOM     27  C   UNL     1       2.258  -7.889   2.342  0.00  0.00    +0.088 A 
ATOM     28  C   UNL     1       1.715  -9.109   2.758  0.00  0.00    +0.063 A 
ATOM     29  C   UNL     1       0.879  -9.237   3.876  0.00  0.00    +0.015 A 
ATOM     30  C   UNL     1       0.507  -8.103   4.578  0.00  0.00    +0.002 A 
ATOM     31  C   UNL     1       0.927  -6.859   4.116  0.00  0.00    +0.013 A 
ATOM     32  C   UNL     1       1.789  -6.740   2.992  0.00  0.00    +0.041 A 
BRANCH  28  33
ATOM     33  C   UNL     1       1.869 -10.308   1.917  0.00  0.00    +0.244 C 
ATOM     34  N   UNL     1       1.182 -10.270   0.733  0.00  0.00    -0.325 N 
ATOM     35  O   UNL     1       2.465 -11.302   2.305  0.00  0.00    -0.270 OA
ATOM     36  H   UNL     1       1.215 -11.080   0.130  0.00  0.00    +0.145 HD
ATOM     37  H   UNL     1       0.658  -9.459   0.433  0.00  0.00    +0.145 HD
ENDBRANCH  28  33
ENDBRANCH  21  23
ENDBRANCH  20  21
ENDBRANCH   5  20
TORSDOF 7
