REMARK  Name = 
REMARK  8 active torsions:
REMARK  status: ('A' for Active; 'I' for Inactive)
REMARK    1  A    between atoms: C_1  and  O_2
REMARK    2  A    between atoms: O_2  and  C_3
REMARK    3  A    between atoms: C_7  and  C_8
REMARK    4  A    between atoms: N_10  and  C_11
REMARK    5  A    between atoms: C_15  and  C_16
REMARK    6  A    between atoms: C_16  and  N_17
REMARK    7  A    between atoms: N_17  and  C_18
REMARK    8  A    between atoms: C_23  and  C_24
REMARK                            x       y       z     vdW  Elec       q    Type
REMARK                         _______ _______ _______ _____ _____    ______ ____
ROOT
ATOM      1  C   UNL     1       3.999   5.521  -0.054  0.00  0.00    +0.034 A 
ATOM      2  C   UNL     1       5.155   5.704   0.707  0.00  0.00    +0.023 A 
ATOM      3  C   UNL     1       6.201   4.795   0.609  0.00  0.00    +0.002 A 
ATOM      4  C   UNL     1       6.108   3.723  -0.278  0.00  0.00    +0.005 A 
ATOM      5  C   UNL     1       5.009   3.579  -1.139  0.00  0.00    -0.029 A 
ATOM      6  C   UNL     1       3.958   4.501  -1.016  0.00  0.00    +0.028 A 
ENDROOT
BRANCH   1   9
ATOM      7  C   UNL     1       1.561   6.141   0.120  0.00  0.00    +0.254 C 
ATOM      8  O   UNL     1       0.756   7.056   0.271  0.00  0.00    -0.270 OA
ATOM      9  N   UNL     1       2.917   6.376   0.215  0.00  0.00    -0.281 N 
ATOM     10  H   UNL     1       3.123   7.271   0.644  0.00  0.00    +0.155 HD
BRANCH   7  15
ATOM     11  C   UNL     1       0.219   2.133  -0.450  0.00  0.00    +0.126 A 
ATOM     12  C   UNL     1       0.986   2.455   0.669  0.00  0.00    +0.085 A 
ATOM     13  C   UNL     1       1.388   3.775   0.872  0.00  0.00    +0.142 A 
ATOM     14  F   UNL     1       2.123   4.055   1.959  0.00  0.00    -0.204 F 
ATOM     15  C   UNL     1       1.055   4.773  -0.042  0.00  0.00    +0.107 A 
ATOM     16  C   UNL     1       0.245   4.458  -1.124  0.00  0.00    +0.142 A 
ATOM     17  F   UNL     1      -0.092   5.390  -2.026  0.00  0.00    -0.204 F 
ATOM     18  C   UNL     1      -0.174   3.146  -1.330  0.00  0.00    +0.085 A 
BRANCH  11  20
ATOM     19  C   UNL     1       0.429  -0.211  -0.132  0.00  0.00    +0.277 C 
ATOM     20  O   UNL     1      -0.212   0.880  -0.786  0.00  0.00    -0.495 OA
ENDBRANCH  11  20
ENDBRANCH   7  15
ENDBRANCH   1   9
BRANCH   5  21
ATOM     21  C   UNL     1       4.923   2.431  -2.135  0.00  0.00    +0.138 C 
BRANCH  21  22
ATOM     22  N   UNL     1       5.947   2.517  -3.162  0.00  0.00    -0.324 N 
ATOM     23  H   UNL     1       5.752   3.036  -4.002  0.00  0.00    +0.148 HD
BRANCH  22  24
ATOM     24  C   UNL     1       7.251   2.174  -2.833  0.00  0.00    +0.130 A 
ATOM     25  N   UNL     1       7.407   1.100  -2.038  0.00  0.00    -0.220 NA
ATOM     26  C   UNL     1       8.589   0.960  -1.441  0.00  0.00    +0.223 A 
ATOM     27  N   UNL     1       9.591   1.839  -1.491  0.00  0.00    -0.235 NA
ATOM     28  C   UNL     1       9.455   2.891  -2.320  0.00  0.00    +0.088 A 
ATOM     29  C   UNL     1      10.433   3.887  -2.404  0.00  0.00    +0.063 A 
ATOM     30  C   UNL     1      10.374   4.949  -3.317  0.00  0.00    +0.015 A 
ATOM     31  C   UNL     1       9.273   5.067  -4.148  0.00  0.00    +0.002 A 
ATOM     32  C   UNL     1       8.230   4.155  -4.018  0.00  0.00    +0.013 A 
ATOM     33  C   UNL     1       8.303   3.071  -3.100  0.00  0.00    +0.041 A 
BRANCH  29  34
ATOM     34  C   UNL     1      11.518   3.939  -1.410  0.00  0.00    +0.244 C 
ATOM     35  N   UNL     1      11.135   4.368  -0.166  0.00  0.00    -0.325 N 
ATOM     36  O   UNL     1      12.681   3.723  -1.707  0.00  0.00    -0.270 OA
ATOM     37  H   UNL     1      11.843   4.457   0.549  0.00  0.00    +0.145 HD
ATOM     38  H   UNL     1      10.175   4.581   0.067  0.00  0.00    +0.145 HD
ENDBRANCH  29  34
ENDBRANCH  22  24
ENDBRANCH  21  22
ENDBRANCH   5  21
TORSDOF 7
