
 OpenBabel10152419523D

 40 43  0  0  0  0  0  0  0  0999 V2000
   -0.6850   -5.6000  -25.8000 C   0  0  0  0  0  0  0  0  0  0  0  0
   -0.1460   -5.0850  -24.6230 C   0  0  0  0  0  3  0  0  0  0  0  0
   -0.4310   -5.7050  -23.4120 C   0  0  0  0  0  3  0  0  0  0  0  0
   -1.2110   -6.8610  -23.3900 C   0  0  0  0  0  3  0  0  0  0  0  0
   -1.6520   -7.4760  -24.5720 C   0  0  0  0  0  0  0  0  0  0  0  0
   -1.3770   -6.8200  -25.7810 C   0  0  0  0  0  3  0  0  0  0  0  0
    0.4800   -4.7880  -27.8790 C   0  0  0  0  0  0  0  0  0  0  0  0
    0.5490   -3.8760  -28.7000 O   0  0  0  0  0  0  0  0  0  0  0  0
   -0.5490   -4.8220  -26.9620 N   0  0  0  0  0  0  0  0  0  0  0  0
   -1.3310   -4.2330  -27.2240 H   0  0  0  0  0  0  0  0  0  0  0  0
    3.3630   -7.9430  -28.1480 C   0  0  0  0  0  0  0  0  0  0  0  0
    3.1690   -7.0600  -29.2170 C   0  0  0  0  0  3  0  0  0  0  0  0
    2.2180   -6.0440  -29.1300 C   0  0  0  0  0  3  0  0  0  0  0  0
    1.4600   -5.9070  -27.9660 C   0  0  0  0  0  0  0  0  0  0  0  0
    1.6260   -6.8250  -26.9170 C   0  0  0  0  0  3  0  0  0  0  0  0
    2.6250   -7.8140  -26.9680 C   0  0  0  0  0  0  0  0  0  0  0  0
    2.8660   -8.6870  -25.7640 C   0  0  0  0  0  0  0  0  0  0  0  0
    3.5870   -9.8080  -26.0590 F   0  0  0  0  0  0  0  0  0  0  0  0
    3.5750   -8.0460  -24.7940 F   0  0  0  0  0  0  0  0  0  0  0  0
    1.7300   -9.1400  -25.1690 F   0  0  0  0  0  0  0  0  0  0  0  0
    4.2490   -9.5760  -29.5260 C   0  0  0  0  0  1  0  0  0  0  0  0
    4.3600   -8.8680  -28.2890 O   0  0  0  0  0  0  0  0  0  0  0  0
   -2.5070   -8.7380  -24.5770 C   0  0  0  0  0  2  0  0  0  0  0  0
   -1.8770   -9.8410  -25.2820 N   0  0  0  0  0  0  0  0  0  0  0  0
   -1.8260   -9.8120  -26.2860 H   0  0  0  0  0  0  0  0  0  0  0  0
   -1.1700  -10.7890  -24.5580 C   0  0  0  0  0  0  0  0  0  0  0  0
   -1.3980  -10.8230  -23.2350 N   0  0  0  0  0  0  0  0  0  0  0  0
   -0.5120  -11.4700  -22.4860 C   0  0  0  0  0  3  0  0  0  0  0  0
    0.6290  -12.0070  -22.9260 N   0  0  0  0  0  0  0  0  0  0  0  0
    0.8510  -12.0060  -24.2570 C   0  0  0  0  0  0  0  0  0  0  0  0
    2.0490  -12.4910  -24.7990 C   0  0  0  0  0  0  0  0  0  0  0  0
    2.2680  -12.5750  -26.1840 C   0  0  0  0  0  3  0  0  0  0  0  0
    1.3070  -12.1030  -27.0640 C   0  0  0  0  0  3  0  0  0  0  0  0
    0.1520  -11.5230  -26.5510 C   0  0  0  0  0  3  0  0  0  0  0  0
   -0.0850  -11.4630  -25.1520 C   0  0  0  0  0  0  0  0  0  0  0  0
    3.2120  -12.8410  -23.9420 C   0  0  0  0  0  0  0  0  0  0  0  0
    2.9660  -12.9580  -22.5990 N   0  0  0  0  0  0  0  0  0  0  0  0
    4.3400  -12.9150  -24.3930 O   0  0  0  0  0  0  0  0  0  0  0  0
    3.7420  -13.1490  -21.9820 H   0  0  0  0  0  0  0  0  0  0  0  0
    2.0280  -12.9490  -22.2230 H   0  0  0  0  0  0  0  0  0  0  0  0
  1  6  2  0  0  0  0
  1  2  1  0  0  0  0
  2  3  2  0  0  0  0
  3  4  1  0  0  0  0
  5  4  2  0  0  0  0
  6  5  1  0  0  0  0
  7  9  1  0  0  0  0
  8  7  2  0  0  0  0
  9  1  1  0  0  0  0
 10  9  1  0  0  0  0
 11 16  1  0  0  0  0
 12 13  1  0  0  0  0
 12 11  2  0  0  0  0
 13 14  2  0  0  0  0
 14  7  1  0  0  0  0
 14 15  1  0  0  0  0
 16 15  2  0  0  0  0
 16 17  1  0  0  0  0
 17 20  1  0  0  0  0
 17 19  1  0  0  0  0
 18 17  1  0  0  0  0
 21 22  1  0  0  0  0
 22 11  1  0  0  0  0
 23  5  1  0  0  0  0
 24 23  1  0  0  0  0
 24 26  1  0  0  0  0
 25 24  1  0  0  0  0
 26 27  1  0  0  0  0
 27 28  2  0  0  0  0
 29 28  1  0  0  0  0
 30 29  2  0  0  0  0
 31 30  1  0  0  0  0
 31 36  1  0  0  0  0
 32 31  2  0  0  0  0
 33 34  2  0  0  0  0
 33 32  1  0  0  0  0
 34 35  1  0  0  0  0
 35 26  2  0  0  0  0
 35 30  1  0  0  0  0
 36 37  1  0  0  0  0
 37 40  1  0  0  0  0
 37 39  1  0  0  0  0
 38 36  2  0  0  0  0
M  END
>  <minimizedAffinity>
-8.20397854

$$$$
