
 OpenBabel10152419523D

 40 43  0  0  0  0  0  0  0  0999 V2000
    1.1250  -11.3820  -26.2700 C   0  0  0  0  0  0  0  0  0  0  0  0
    1.3050  -12.5370  -25.5130 C   0  0  0  0  0  3  0  0  0  0  0  0
    2.5930  -12.9590  -25.2070 C   0  0  0  0  0  3  0  0  0  0  0  0
    3.6890  -12.2010  -25.6170 C   0  0  0  0  0  3  0  0  0  0  0  0
    3.5310  -10.9650  -26.2630 C   0  0  0  0  0  0  0  0  0  0  0  0
    2.2240  -10.5700  -26.5870 C   0  0  0  0  0  3  0  0  0  0  0  0
   -1.3420  -10.9440  -26.0220 C   0  0  0  0  0  0  0  0  0  0  0  0
   -2.4280  -10.9630  -26.5980 O   0  0  0  0  0  0  0  0  0  0  0  0
   -0.1740  -11.1160  -26.7350 N   0  0  0  0  0  0  0  0  0  0  0  0
   -0.2930  -10.9620  -27.7300 H   0  0  0  0  0  0  0  0  0  0  0  0
   -1.1520  -10.0470  -21.8390 C   0  0  0  0  0  0  0  0  0  0  0  0
   -0.7490  -11.2990  -22.3200 C   0  0  0  0  0  3  0  0  0  0  0  0
   -0.8270  -11.5900  -23.6810 C   0  0  0  0  0  3  0  0  0  0  0  0
   -1.3070  -10.6250  -24.5680 C   0  0  0  0  0  0  0  0  0  0  0  0
   -1.7550   -9.3900  -24.0730 C   0  0  0  0  0  3  0  0  0  0  0  0
   -1.6220   -9.0600  -22.7110 C   0  0  0  0  0  0  0  0  0  0  0  0
   -1.9820   -7.6750  -22.2450 C   0  0  0  0  0  0  0  0  0  0  0  0
   -2.5430   -7.6630  -21.0000 F   0  0  0  0  0  0  0  0  0  0  0  0
   -0.8940   -6.8590  -22.1580 F   0  0  0  0  0  0  0  0  0  0  0  0
   -2.8760   -7.0320  -23.0440 F   0  0  0  0  0  0  0  0  0  0  0  0
   -0.9910  -11.0380  -19.7560 C   0  0  0  0  0  1  0  0  0  0  0  0
   -0.9800   -9.8190  -20.5020 O   0  0  0  0  0  0  0  0  0  0  0  0
    4.7110  -10.1170  -26.7240 C   0  0  0  0  0  2  0  0  0  0  0  0
    4.4670   -8.6910  -26.5850 N   0  0  0  0  0  0  0  0  0  0  0  0
    5.1250   -8.1330  -26.0700 H   0  0  0  0  0  0  0  0  0  0  0  0
    3.4660   -8.1010  -27.3420 C   0  0  0  0  0  0  0  0  0  0  0  0
    3.7510   -7.8710  -28.6340 N   0  0  0  0  0  0  0  0  0  0  0  0
    2.9620   -7.0220  -29.2840 C   0  0  0  0  0  3  0  0  0  0  0  0
    1.9720   -6.3110  -28.7370 N   0  0  0  0  0  0  0  0  0  0  0  0
    1.6580   -6.5590  -27.4490 C   0  0  0  0  0  0  0  0  0  0  0  0
    0.6760   -5.8170  -26.7790 C   0  0  0  0  0  0  0  0  0  0  0  0
    0.2770   -6.1110  -25.4650 C   0  0  0  0  0  3  0  0  0  0  0  0
    0.9110   -7.1230  -24.7620 C   0  0  0  0  0  3  0  0  0  0  0  0
    1.9570   -7.8090  -25.3670 C   0  0  0  0  0  3  0  0  0  0  0  0
    2.3450   -7.5330  -26.7060 C   0  0  0  0  0  0  0  0  0  0  0  0
    0.0750   -4.5950  -27.3760 C   0  0  0  0  0  0  0  0  0  0  0  0
    0.9310   -3.7580  -28.0420 N   0  0  0  0  0  0  0  0  0  0  0  0
   -1.0920   -4.3010  -27.1920 O   0  0  0  0  0  0  0  0  0  0  0  0
    0.5650   -2.8960  -28.4200 H   0  0  0  0  0  0  0  0  0  0  0  0
    1.8870   -4.0170  -28.2430 H   0  0  0  0  0  0  0  0  0  0  0  0
  1  2  1  0  0  0  0
  2  3  2  0  0  0  0
  4  3  1  0  0  0  0
  5  4  2  0  0  0  0
  6  1  2  0  0  0  0
  6  5  1  0  0  0  0
  7 14  1  0  0  0  0
  8  7  2  0  0  0  0
  9  1  1  0  0  0  0
  9  7  1  0  0  0  0
 10  9  1  0  0  0  0
 11 22  1  0  0  0  0
 12 11  1  0  0  0  0
 13 12  2  0  0  0  0
 14 15  2  0  0  0  0
 14 13  1  0  0  0  0
 15 16  1  0  0  0  0
 16 17  1  0  0  0  0
 16 11  2  0  0  0  0
 17 19  1  0  0  0  0
 17 18  1  0  0  0  0
 20 17  1  0  0  0  0
 22 21  1  0  0  0  0
 23 24  1  0  0  0  0
 23  5  1  0  0  0  0
 24 25  1  0  0  0  0
 26 35  1  0  0  0  0
 26 24  1  0  0  0  0
 27 26  2  0  0  0  0
 28 29  2  0  0  0  0
 28 27  1  0  0  0  0
 29 30  1  0  0  0  0
 30 31  2  0  0  0  0
 30 35  1  0  0  0  0
 31 32  1  0  0  0  0
 32 33  2  0  0  0  0
 34 33  1  0  0  0  0
 35 34  2  0  0  0  0
 36 38  2  0  0  0  0
 36 31  1  0  0  0  0
 37 36  1  0  0  0  0
 39 37  1  0  0  0  0
 40 37  1  0  0  0  0
M  END
>  <minimizedAffinity>
-8.26949406

$$$$
