
 OpenBabel10152419523D

 40 43  0  0  0  0  0  0  0  0999 V2000
   -0.3890   -4.5900  -25.2770 C   0  0  0  0  0  0  0  0  0  0  0  0
   -0.8730   -3.4260  -25.8690 C   0  0  0  0  0  3  0  0  0  0  0  0
   -0.5630   -3.1540  -27.1960 C   0  0  0  0  0  3  0  0  0  0  0  0
    0.1860   -4.0680  -27.9370 C   0  0  0  0  0  3  0  0  0  0  0  0
    0.5700   -5.3090  -27.4060 C   0  0  0  0  0  0  0  0  0  0  0  0
    0.2710   -5.5530  -26.0570 C   0  0  0  0  0  3  0  0  0  0  0  0
   -1.1150   -5.7370  -23.1570 C   0  0  0  0  0  0  0  0  0  0  0  0
   -1.3870   -5.5730  -21.9690 O   0  0  0  0  0  0  0  0  0  0  0  0
   -0.5430   -4.7160  -23.8870 N   0  0  0  0  0  0  0  0  0  0  0  0
   -0.1320   -3.9960  -23.3040 H   0  0  0  0  0  0  0  0  0  0  0  0
   -1.6160   -9.5940  -24.9470 C   0  0  0  0  0  0  0  0  0  0  0  0
   -1.7640   -8.4290  -25.7090 C   0  0  0  0  0  3  0  0  0  0  0  0
   -1.6140   -7.1750  -25.1170 C   0  0  0  0  0  3  0  0  0  0  0  0
   -1.3120   -7.0850  -23.7580 C   0  0  0  0  0  0  0  0  0  0  0  0
   -1.2130   -8.2570  -22.9900 C   0  0  0  0  0  3  0  0  0  0  0  0
   -1.2980   -9.5280  -23.5870 C   0  0  0  0  0  0  0  0  0  0  0  0
   -1.0450  -10.7570  -22.7550 C   0  0  0  0  0  0  0  0  0  0  0  0
   -0.1120  -11.5870  -23.3070 F   0  0  0  0  0  0  0  0  0  0  0  0
   -0.5700  -10.4530  -21.5160 F   0  0  0  0  0  0  0  0  0  0  0  0
   -2.1440  -11.5350  -22.5620 F   0  0  0  0  0  0  0  0  0  0  0  0
   -0.6150  -10.9700  -26.5140 C   0  0  0  0  0  1  0  0  0  0  0  0
   -1.7130  -10.7820  -25.6180 O   0  0  0  0  0  0  0  0  0  0  0  0
    1.3900   -6.3250  -28.1910 C   0  0  0  0  0  2  0  0  0  0  0  0
    2.8050   -6.2840  -27.8600 N   0  0  0  0  0  0  0  0  0  0  0  0
    3.2030   -5.4200  -27.5340 H   0  0  0  0  0  0  0  0  0  0  0  0
    3.5160   -7.4710  -27.7870 C   0  0  0  0  0  0  0  0  0  0  0  0
    4.3030   -7.7620  -28.8370 N   0  0  0  0  0  0  0  0  0  0  0  0
    4.7220   -9.0180  -28.9460 C   0  0  0  0  0  3  0  0  0  0  0  0
    4.3520  -10.0300  -28.1570 N   0  0  0  0  0  0  0  0  0  0  0  0
    3.5900   -9.7420  -27.0830 C   0  0  0  0  0  0  0  0  0  0  0  0
    3.1060  -10.7490  -26.2380 C   0  0  0  0  0  0  0  0  0  0  0  0
    2.3790  -10.4660  -25.0700 C   0  0  0  0  0  3  0  0  0  0  0  0
    2.0580   -9.1550  -24.7580 C   0  0  0  0  0  3  0  0  0  0  0  0
    2.4380   -8.1440  -25.6320 C   0  0  0  0  0  3  0  0  0  0  0  0
    3.1970   -8.4240  -26.7990 C   0  0  0  0  0  0  0  0  0  0  0  0
    3.2300  -12.1900  -26.5840 C   0  0  0  0  0  0  0  0  0  0  0  0
    2.4750  -12.6300  -27.6390 N   0  0  0  0  0  0  0  0  0  0  0  0
    3.8860  -12.9580  -25.9040 O   0  0  0  0  0  0  0  0  0  0  0  0
    2.4990  -13.6120  -27.8730 H   0  0  0  0  0  0  0  0  0  0  0  0
    1.9680  -11.9930  -28.2390 H   0  0  0  0  0  0  0  0  0  0  0  0
  1  9  1  0  0  0  0
  2  1  1  0  0  0  0
  3  2  2  0  0  0  0
  4  5  2  0  0  0  0
  4  3  1  0  0  0  0
  5  6  1  0  0  0  0
  6  1  2  0  0  0  0
  7  8  2  0  0  0  0
  9 10  1  0  0  0  0
  9  7  1  0  0  0  0
 11 16  1  0  0  0  0
 12 13  1  0  0  0  0
 12 11  2  0  0  0  0
 13 14  2  0  0  0  0
 14  7  1  0  0  0  0
 14 15  1  0  0  0  0
 16 15  2  0  0  0  0
 16 17  1  0  0  0  0
 17 20  1  0  0  0  0
 17 19  1  0  0  0  0
 18 17  1  0  0  0  0
 21 22  1  0  0  0  0
 22 11  1  0  0  0  0
 23 24  1  0  0  0  0
 23  5  1  0  0  0  0
 24 26  1  0  0  0  0
 24 25  1  0  0  0  0
 26 35  1  0  0  0  0
 27 26  2  0  0  0  0
 28 27  1  0  0  0  0
 28 29  2  0  0  0  0
 29 30  1  0  0  0  0
 30 35  2  0  0  0  0
 30 31  1  0  0  0  0
 31 32  2  0  0  0  0
 32 33  1  0  0  0  0
 34 33  2  0  0  0  0
 35 34  1  0  0  0  0
 36 31  1  0  0  0  0
 36 38  2  0  0  0  0
 37 36  1  0  0  0  0
 39 37  1  0  0  0  0
 40 37  1  0  0  0  0
M  END
>  <minimizedAffinity>
-8.54674816

$$$$
