REMARK  Name = 
REMARK  9 active torsions:
REMARK  status: ('A' for Active; 'I' for Inactive)
REMARK    1  A    between atoms: C_1  and  O_2
REMARK    2  A    between atoms: O_2  and  C_3
REMARK    3  A    between atoms: C_6  and  C_7
REMARK    4  A    between atoms: N_9  and  C_10
REMARK    5  A    between atoms: C_14  and  C_15
REMARK    6  A    between atoms: C_15  and  N_16
REMARK    7  A    between atoms: N_16  and  C_17
REMARK    8  A    between atoms: C_22  and  C_23
REMARK    9  A    between atoms: C_32  and  C_33
REMARK                            x       y       z     vdW  Elec       q    Type
REMARK                         _______ _______ _______ _____ _____    ______ ____
ROOT
ATOM      1  C   UNL     1       3.873  -4.732  -3.760  0.00  0.00    +0.034 A 
ATOM      2  C   UNL     1       5.051  -4.416  -4.434  0.00  0.00    +0.023 A 
ATOM      3  C   UNL     1       6.183  -4.070  -3.706  0.00  0.00    +0.002 A 
ATOM      4  C   UNL     1       6.146  -4.089  -2.312  0.00  0.00    +0.005 A 
ATOM      5  C   UNL     1       5.015  -4.533  -1.610  0.00  0.00    -0.029 A 
ATOM      6  C   UNL     1       3.874  -4.852  -2.362  0.00  0.00    +0.028 A 
ENDROOT
BRANCH   1   9
ATOM      7  C   UNL     1       1.402  -4.553  -4.208  0.00  0.00    +0.248 C 
ATOM      8  O   UNL     1       0.477  -4.958  -4.909  0.00  0.00    -0.270 OA
ATOM      9  N   UNL     1       2.707  -4.862  -4.532  0.00  0.00    -0.281 N 
ATOM     10  H   UNL     1       2.813  -5.168  -5.492  0.00  0.00    +0.155 HD
BRANCH   7  14
ATOM     11  C   UNL     1       0.520  -1.994  -0.890  0.00  0.00    +0.132 A 
ATOM     12  C   UNL     1      -0.307  -3.083  -1.191  0.00  0.00    +0.047 A 
ATOM     13  C   UNL     1      -0.023  -3.904  -2.282  0.00  0.00    +0.016 A 
ATOM     14  C   UNL     1       1.095  -3.638  -3.074  0.00  0.00    +0.038 A 
ATOM     15  C   UNL     1       1.892  -2.516  -2.795  0.00  0.00    +0.029 A 
ATOM     16  C   UNL     1       1.653  -1.718  -1.661  0.00  0.00    +0.097 A 
BRANCH  16  17
ATOM     17  C   UNL     1       2.614  -0.611  -1.318  0.00  0.00    +0.421 C 
ATOM     18  F   UNL     1       3.852  -0.796  -1.864  0.00  0.00    -0.166 F 
ATOM     19  F   UNL     1       2.194   0.600  -1.778  0.00  0.00    -0.166 F 
ATOM     20  F   UNL     1       2.833  -0.456   0.016  0.00  0.00    -0.166 F 
ENDBRANCH  16  17
BRANCH  11  22
ATOM     21  C   UNL     1      -0.420  -0.038  -0.090  0.00  0.00    +0.277 C 
ATOM     22  O   UNL     1       0.209  -1.280   0.234  0.00  0.00    -0.495 OA
ENDBRANCH  11  22
ENDBRANCH   7  14
ENDBRANCH   1   9
BRANCH   5  23
ATOM     23  C   UNL     1       4.946  -4.562  -0.088  0.00  0.00    +0.138 C 
BRANCH  23  24
ATOM     24  N   UNL     1       6.119  -5.170   0.517  0.00  0.00    -0.324 N 
ATOM     25  H   UNL     1       6.134  -6.166   0.657  0.00  0.00    +0.148 HD
BRANCH  24  26
ATOM     26  C   UNL     1       7.265  -4.408   0.681  0.00  0.00    +0.130 A 
ATOM     27  N   UNL     1       7.084  -3.118   1.009  0.00  0.00    -0.220 NA
ATOM     28  C   UNL     1       8.120  -2.302   0.844  0.00  0.00    +0.223 A 
ATOM     29  N   UNL     1       9.290  -2.637   0.295  0.00  0.00    -0.235 NA
ATOM     30  C   UNL     1       9.493  -3.936  -0.007  0.00  0.00    +0.088 A 
ATOM     31  C   UNL     1      10.666  -4.365  -0.642  0.00  0.00    +0.063 A 
ATOM     32  C   UNL     1      10.933  -5.721  -0.892  0.00  0.00    +0.015 A 
ATOM     33  C   UNL     1       9.987  -6.681  -0.570  0.00  0.00    +0.002 A 
ATOM     34  C   UNL     1       8.772  -6.274  -0.032  0.00  0.00    +0.013 A 
ATOM     35  C   UNL     1       8.510  -4.906   0.248  0.00  0.00    +0.041 A 
BRANCH  31  36
ATOM     36  C   UNL     1      11.653  -3.402  -1.198  0.00  0.00    +0.244 C 
ATOM     37  N   UNL     1      11.140  -2.303  -1.835  0.00  0.00    -0.325 N 
ATOM     38  O   UNL     1      12.849  -3.630  -1.181  0.00  0.00    -0.270 OA
ATOM     39  H   UNL     1      11.781  -1.652  -2.265  0.00  0.00    +0.145 HD
ATOM     40  H   UNL     1      10.154  -2.080  -1.810  0.00  0.00    +0.145 HD
ENDBRANCH  31  36
ENDBRANCH  24  26
ENDBRANCH  23  24
ENDBRANCH   5  23
TORSDOF 8
