
 OpenBabel10152418573D

 39 45  0  0  1  0  0  0  0  0999 V2000
    4.0050  -11.9610    8.6160 C   0  0  0  0  0  0  0  0  0  0  0  0
    3.6410  -11.5340    7.3360 C   0  0  0  0  0  3  0  0  0  0  0  0
    4.1580  -10.3470    6.8210 C   0  0  0  0  0  3  0  0  0  0  0  0
    5.0240   -9.5610    7.5880 C   0  0  0  0  0  3  0  0  0  0  0  0
    5.3530   -9.9350    8.8910 C   0  0  0  0  0  0  0  0  0  0  0  0
    4.8520  -11.1470    9.3880 C   0  0  0  0  0  0  0  0  0  0  0  0
    6.2140   -9.2160    9.7410 N   0  0  0  0  0  0  0  0  0  0  0  0
    7.3460   -9.5540   10.4390 C   0  0  0  0  0  0  0  0  0  0  0  0
    7.7620   -8.8060   11.3230 O   0  0  0  0  0  0  0  0  0  0  0  0
    5.9400   -8.2610    9.9460 H   0  0  0  0  0  0  0  0  0  0  0  0
    8.1460  -10.7520   10.1190 C   0  0  0  0  0  0  0  0  0  0  0  0
    9.4180  -10.8740   10.6820 C   0  0  0  0  0  3  0  0  0  0  0  0
   10.2110  -11.9770   10.3640 C   0  0  0  0  0  0  0  0  0  0  0  0
    9.7440  -12.9500    9.4710 C   0  0  0  0  0  0  0  0  0  0  0  0
   10.7860  -14.2860    9.1410 Cl  0  0  0  0  0  0  0  0  0  0  0  0
    8.4810  -12.8260    8.8750 C   0  0  0  0  0  0  0  0  0  0  0  0
    7.6890  -11.7050    9.2000 C   0  0  0  0  0  0  0  0  0  0  0  0
    7.9640  -13.8580    7.9080 C   0  0  0  0  0  0  0  0  0  0  0  0
    7.2100  -13.3260    6.9080 F   0  0  0  0  0  0  0  0  0  0  0  0
    8.9580  -14.5690    7.3090 F   0  0  0  0  0  0  0  0  0  0  0  0
    7.1650  -14.7900    8.5050 F   0  0  0  0  0  0  0  0  0  0  0  0
    3.4870  -13.2690    9.1640 C   0  0  0  0  0  2  0  0  0  0  0  0
    8.5430  -13.3380   12.5730 C   0  0  0  0  0  0  0  0  0  0  0  0
    8.1270  -14.2170   13.5870 C   0  0  0  0  0  3  0  0  0  0  0  0
    6.8770  -14.8050   13.5060 C   0  0  0  0  0  3  0  0  0  0  0  0
    6.0590  -14.5090   12.4180 C   0  0  0  0  0  3  0  0  0  0  0  0
    6.4830  -13.6270   11.3860 C   0  0  0  0  0  0  0  0  0  0  0  0
    5.6970  -13.2870   10.2640 C   0  0  0  0  0  0  0  0  0  0  0  0
    4.4190  -13.8210   10.1230 N   0  0  0  0  0  0  0  0  0  0  0  0
    6.1240  -12.4180    9.3350 N   0  0  0  0  0  0  0  0  0  0  0  0
    7.3490  -11.9150    9.4980 C   0  0  0  0  0  0  0  0  0  0  0  0
    8.1850  -12.1900   10.5020 N   0  0  0  0  0  0  0  0  0  0  0  0
    7.7500  -13.0240   11.4620 C   0  0  2  0  0  3  0  0  0  0  0  0
    4.3440  -14.8130   10.2960 H   0  0  0  0  0  0  0  0  0  0  0  0
   10.0420  -12.0230   13.9130 N   0  0  0  0  0  0  0  0  0  0  0  0
    9.8610  -12.7030   12.7410 C   0  0  2  0  0  3  0  0  0  0  0  0
   10.7080  -12.7230   11.8600 O   0  0  0  0  0  0  0  0  0  0  0  0
   10.9340  -11.5690   14.0560 H   0  0  0  0  0  0  0  0  0  0  0  0
    9.3610  -12.0090   14.6580 H   0  0  0  0  0  0  0  0  0  0  0  0
  1 22  1  0  0  0  0
  1  6  1  0  0  0  0
  2  1  2  0  0  0  0
  3  2  1  0  0  0  0
  3  4  2  0  0  0  0
  4  5  1  0  0  0  0
  5  6  2  0  0  0  0
  5  7  1  0  0  0  0
  7 10  1  0  0  0  0
  7  8  1  0  0  0  0
  8  9  2  0  0  0  0
 11  8  1  0  0  0  0
 11 12  1  0  0  0  0
 13 12  2  0  0  0  0
 13 37  1  0  0  0  0
 14 13  1  0  0  0  0
 15 14  1  0  0  0  0
 16 17  1  0  0  0  0
 16 14  2  0  0  0  0
 17 31  1  0  0  0  0
 17 11  2  0  0  0  0
 18 21  1  0  0  0  0
 18 16  1  0  0  0  0
 19 18  1  0  0  0  0
 20 18  1  0  0  0  0
 22 29  1  0  0  0  0
 23 36  1  0  0  0  0
 23 24  2  0  0  0  0
 25 24  1  0  0  0  0
 26 25  2  0  0  0  0
 27 26  1  0  0  0  0
 28 27  2  0  0  0  0
 29 28  1  0  0  0  0
 29 34  1  0  0  0  0
 30  6  1  0  0  0  0
 30 31  1  0  0  0  0
 30 28  1  0  0  0  0
 31 32  2  0  0  0  0
 33 27  1  6  0  0  0
 33 32  1  0  0  0  0
 33 23  1  0  0  0  0
 35 38  1  0  0  0  0
 35 39  1  0  0  0  0
 36 35  1  6  0  0  0
 37 36  1  0  0  0  0
M  END
>  <minimizedAffinity>
82.918129

$$$$
