REMARK  Name = 
REMARK  6 active torsions:
REMARK  status: ('A' for Active; 'I' for Inactive)
REMARK    1  A    between atoms: C_2  and  C_4
REMARK    2  A    between atoms: N_10  and  C_11
REMARK    3  A    between atoms: C_11  and  C_12
REMARK    4  A    between atoms: C_16  and  N_17
REMARK    5  A    between atoms: C_18  and  C_20
REMARK    6  A    between atoms: C_25  and  C_26
REMARK                            x       y       z     vdW  Elec       q    Type
REMARK                         _______ _______ _______ _____ _____    ______ ____
ROOT
ATOM      1  C   UNL     1       1.865   0.126   9.424  0.00  0.00    -0.029 A 
ATOM      2  C   UNL     1       1.471  -1.213   9.506  0.00  0.00    +0.005 A 
ATOM      3  C   UNL     1       2.162  -2.096  10.333  0.00  0.00    +0.002 A 
ATOM      4  C   UNL     1       3.269  -1.658  11.068  0.00  0.00    +0.023 A 
ATOM      5  C   UNL     1       3.718  -0.343  10.955  0.00  0.00    +0.034 A 
ATOM      6  C   UNL     1       2.997   0.546  10.144  0.00  0.00    +0.028 A 
ENDROOT
BRANCH   5   7
ATOM      7  N   UNL     1       4.817   0.194  11.651  0.00  0.00    -0.281 N 
ATOM      8  C   UNL     1       5.825  -0.366  12.396  0.00  0.00    +0.248 C 
ATOM      9  O   UNL     1       6.515   0.349  13.122  0.00  0.00    -0.270 OA
ATOM     10  H   UNL     1       4.877   1.206  11.674  0.00  0.00    +0.155 HD
BRANCH   8  11
ATOM     11  C   UNL     1       6.177  -1.796  12.304  0.00  0.00    +0.038 A 
ATOM     12  C   UNL     1       6.350  -2.517  13.487  0.00  0.00    +0.014 A 
ATOM     13  C   UNL     1       6.723  -3.860  13.429  0.00  0.00    +0.021 A 
ATOM     14  C   UNL     1       6.941  -4.481  12.193  0.00  0.00    +0.053 A 
ATOM     15 CL   UNL     1       7.390  -6.148  12.212  0.00  0.00    -0.083 Cl
ATOM     16  C   UNL     1       6.800  -3.762  10.997  0.00  0.00    +0.074 A 
ATOM     17  C   UNL     1       6.427  -2.404  11.067  0.00  0.00    +0.027 A 
BRANCH  16  18
ATOM     18  C   UNL     1       7.036  -4.410   9.659  0.00  0.00    +0.419 C 
ATOM     19  F   UNL     1       8.297  -4.900   9.515  0.00  0.00    -0.166 F 
ATOM     20  F   UNL     1       6.187  -5.445   9.413  0.00  0.00    -0.166 F 
ATOM     21  F   UNL     1       6.864  -3.548   8.614  0.00  0.00    -0.166 F 
ENDBRANCH  16  18
ENDBRANCH   8  11
ENDBRANCH   5   7
BRANCH   1  22
ATOM     22  C   UNL     1       1.094   1.100   8.566  0.00  0.00    +0.138 C 
BRANCH  22  29
ATOM     23  C   UNL     1       1.106   0.858   2.472  0.00  0.00    +0.063 A 
ATOM     24  C   UNL     1       2.210   1.685   2.209  0.00  0.00    +0.015 A 
ATOM     25  C   UNL     1       2.940   2.201   3.266  0.00  0.00    +0.002 A 
ATOM     26  C   UNL     1       2.559   1.886   4.568  0.00  0.00    +0.013 A 
ATOM     27  C   UNL     1       1.448   1.040   4.836  0.00  0.00    +0.041 A 
ATOM     28  C   UNL     1       1.013   0.691   6.132  0.00  0.00    +0.130 A 
ATOM     29  N   UNL     1       1.683   1.188   7.247  0.00  0.00    -0.324 N 
ATOM     30  N   UNL     1      -0.067  -0.079   6.336  0.00  0.00    -0.220 NA
ATOM     31  C   UNL     1      -0.695  -0.536   5.251  0.00  0.00    +0.223 A 
ATOM     32  N   UNL     1      -0.353  -0.292   3.984  0.00  0.00    -0.235 NA
ATOM     33  C   UNL     1       0.700   0.515   3.768  0.00  0.00    +0.088 A 
ATOM     34  H   UNL     1       2.691   1.133   7.206  0.00  0.00    +0.148 HD
BRANCH  23  36
ATOM     35  N   UNL     1       0.972  -0.538   0.521  0.00  0.00    -0.325 N 
ATOM     36  C   UNL     1       0.337   0.382   1.309  0.00  0.00    +0.244 C 
ATOM     37  O   UNL     1      -0.763   0.833   1.030  0.00  0.00    -0.270 OA
ATOM     38  H   UNL     1       0.474  -0.880  -0.290  0.00  0.00    +0.145 HD
ATOM     39  H   UNL     1       1.873  -0.934   0.745  0.00  0.00    +0.145 HD
ENDBRANCH  23  36
ENDBRANCH  22  29
ENDBRANCH   1  22
TORSDOF 6
