
 OpenBabel10152418313D

 37 40  0  0  0  0  0  0  0  0999 V2000
   -0.5240  -11.8140  -23.8310 C   0  0  0  0  0  0  0  0  0  0  0  0
   -1.3820  -12.0390  -24.9070 C   0  0  0  0  0  3  0  0  0  0  0  0
   -0.9080  -11.9070  -26.2080 C   0  0  0  0  0  3  0  0  0  0  0  0
    0.4290  -11.5740  -26.4310 C   0  0  0  0  0  3  0  0  0  0  0  0
    1.3390  -11.4480  -25.3700 C   0  0  0  0  0  0  0  0  0  0  0  0
    0.8420  -11.6010  -24.0670 C   0  0  0  0  0  3  0  0  0  0  0  0
   -1.4100  -10.7310  -21.7270 C   0  0  0  0  0  0  0  0  0  0  0  0
   -1.5860  -10.9450  -20.5280 O   0  0  0  0  0  0  0  0  0  0  0  0
   -1.0930  -11.7960  -22.5450 N   0  0  0  0  0  0  0  0  0  0  0  0
   -1.3430  -12.6870  -22.1350 H   0  0  0  0  0  0  0  0  0  0  0  0
   -1.4580   -7.3260  -23.0410 C   0  0  0  0  0  0  0  0  0  0  0  0
   -0.6990   -8.4970  -22.8240 C   0  0  0  0  0  3  0  0  0  0  0  0
   -1.5830   -9.4150  -22.2880 C   0  0  0  0  0  0  0  0  0  0  0  0
   -2.8110   -8.8320  -22.4280 N   0  0  0  0  0  0  0  0  0  0  0  0
   -2.7590   -7.5420  -22.8050 N   0  0  0  0  0  0  0  0  0  0  0  0
   -3.7140   -9.2460  -22.2150 H   0  0  0  0  0  0  0  0  0  0  0  0
   -1.0920   -4.9540  -22.2920 C   0  0  0  0  0  1  0  0  0  0  0  0
   -0.9370   -5.9700  -23.4210 C   0  0  0  0  0  3  0  0  0  0  0  0
    0.5170   -6.0410  -23.8980 C   0  0  0  0  0  1  0  0  0  0  0  0
    2.7950  -11.0610  -25.5950 C   0  0  0  0  0  2  0  0  0  0  0  0
    3.0370   -9.6490  -25.3650 N   0  0  0  0  0  0  0  0  0  0  0  0
    3.3680   -9.3510  -24.4620 H   0  0  0  0  0  0  0  0  0  0  0  0
    3.0310   -8.7780  -26.4420 C   0  0  0  0  0  0  0  0  0  0  0  0
    4.2290   -8.4310  -26.9460 N   0  0  0  0  0  0  0  0  0  0  0  0
    4.2650   -7.3530  -27.7260 C   0  0  0  0  0  3  0  0  0  0  0  0
    3.2360   -6.5390  -27.9660 N   0  0  0  0  0  0  0  0  0  0  0  0
    2.0270   -6.9090  -27.5020 C   0  0  0  0  0  0  0  0  0  0  0  0
    0.8980   -6.0980  -27.6690 C   0  0  0  0  0  0  0  0  0  0  0  0
   -0.3930   -6.5000  -27.2990 C   0  0  0  0  0  3  0  0  0  0  0  0
   -0.5730   -7.7230  -26.6750 C   0  0  0  0  0  3  0  0  0  0  0  0
    0.5430   -8.5020  -26.3870 C   0  0  0  0  0  3  0  0  0  0  0  0
    1.8470   -8.1010  -26.7870 C   0  0  0  0  0  0  0  0  0  0  0  0
    1.0410   -4.7000  -28.1190 C   0  0  0  0  0  0  0  0  0  0  0  0
    1.8690   -4.5140  -29.1930 N   0  0  0  0  0  0  0  0  0  0  0  0
    0.5500   -3.7690  -27.4980 O   0  0  0  0  0  0  0  0  0  0  0  0
    2.0370   -3.5700  -29.5120 H   0  0  0  0  0  0  0  0  0  0  0  0
    2.2920   -5.2830  -29.6950 H   0  0  0  0  0  0  0  0  0  0  0  0
  1  9  1  0  0  0  0
  2  1  2  0  0  0  0
  3  2  1  0  0  0  0
  4  3  2  0  0  0  0
  4  5  1  0  0  0  0
  5  6  2  0  0  0  0
  6  1  1  0  0  0  0
  7  8  2  0  0  0  0
  9 10  1  0  0  0  0
  9  7  1  0  0  0  0
 11 12  1  0  0  0  0
 11 15  2  0  0  0  0
 12 13  2  0  0  0  0
 13  7  1  0  0  0  0
 14 13  1  0  0  0  0
 14 16  1  0  0  0  0
 15 14  1  0  0  0  0
 18 11  1  0  0  0  0
 18 17  1  0  0  0  0
 19 18  1  0  0  0  0
 20  5  1  0  0  0  0
 20 21  1  0  0  0  0
 21 22  1  0  0  0  0
 23 21  1  0  0  0  0
 24 23  2  0  0  0  0
 25 24  1  0  0  0  0
 26 25  2  0  0  0  0
 26 27  1  0  0  0  0
 27 32  1  0  0  0  0
 28 27  2  0  0  0  0
 28 29  1  0  0  0  0
 29 30  2  0  0  0  0
 30 31  1  0  0  0  0
 32 23  1  0  0  0  0
 32 31  2  0  0  0  0
 33 28  1  0  0  0  0
 33 35  2  0  0  0  0
 34 33  1  0  0  0  0
 36 34  1  0  0  0  0
 37 34  1  0  0  0  0
M  END
>  <minimizedAffinity>
-7.03282976

$$$$
