
 OpenBabel10152418313D

 37 40  0  0  0  0  0  0  0  0999 V2000
   -0.6360  -11.7610  -23.6540 C   0  0  0  0  0  0  0  0  0  0  0  0
   -1.3960  -11.7350  -24.8230 C   0  0  0  0  0  3  0  0  0  0  0  0
   -0.7610  -11.7630  -26.0600 C   0  0  0  0  0  3  0  0  0  0  0  0
    0.6300  -11.8410  -26.1270 C   0  0  0  0  0  3  0  0  0  0  0  0
    1.4120  -11.9770  -24.9700 C   0  0  0  0  0  0  0  0  0  0  0  0
    0.7500  -11.9620  -23.7340 C   0  0  0  0  0  3  0  0  0  0  0  0
   -1.6060  -10.3950  -21.7630 C   0  0  0  0  0  0  0  0  0  0  0  0
   -1.9090  -10.4670  -20.5720 O   0  0  0  0  0  0  0  0  0  0  0  0
   -1.3150  -11.5620  -22.4380 N   0  0  0  0  0  0  0  0  0  0  0  0
   -1.6800  -12.3820  -21.9710 H   0  0  0  0  0  0  0  0  0  0  0  0
   -1.2030   -7.2370  -23.5490 C   0  0  0  0  0  0  0  0  0  0  0  0
   -0.7260   -8.5520  -23.3530 C   0  0  0  0  0  3  0  0  0  0  0  0
   -1.6080   -9.1360  -22.4630 C   0  0  0  0  0  0  0  0  0  0  0  0
   -2.6400   -8.2440  -22.3680 N   0  0  0  0  0  0  0  0  0  0  0  0
   -2.3870   -7.0580  -22.9480 N   0  0  0  0  0  0  0  0  0  0  0  0
   -3.5120   -8.3680  -21.8610 H   0  0  0  0  0  0  0  0  0  0  0  0
   -0.2150   -4.9340  -23.3470 C   0  0  0  0  0  1  0  0  0  0  0  0
   -0.5010   -6.1200  -24.2660 C   0  0  0  0  0  3  0  0  0  0  0  0
    0.7820   -6.6070  -24.9460 C   0  0  0  0  0  1  0  0  0  0  0  0
    2.9330  -12.0390  -25.0240 C   0  0  0  0  0  2  0  0  0  0  0  0
    3.4460  -11.9500  -26.3790 N   0  0  0  0  0  0  0  0  0  0  0  0
    3.3340  -12.7370  -26.9950 H   0  0  0  0  0  0  0  0  0  0  0  0
    3.8660  -10.7210  -26.8630 C   0  0  0  0  0  0  0  0  0  0  0  0
    3.6140   -9.6480  -26.0910 N   0  0  0  0  0  0  0  0  0  0  0  0
    3.6860   -8.4560  -26.6760 C   0  0  0  0  0  3  0  0  0  0  0  0
    3.8890   -8.2440  -27.9770 N   0  0  0  0  0  0  0  0  0  0  0  0
    4.1890   -9.3120  -28.7420 C   0  0  0  0  0  0  0  0  0  0  0  0
    4.3760   -9.1940  -30.1240 C   0  0  0  0  0  0  0  0  0  0  0  0
    4.7970  -10.2590  -30.9330 C   0  0  0  0  0  3  0  0  0  0  0  0
    4.9740  -11.5120  -30.3700 C   0  0  0  0  0  3  0  0  0  0  0  0
    4.6820  -11.6910  -29.0220 C   0  0  0  0  0  3  0  0  0  0  0  0
    4.2790  -10.6020  -28.2020 C   0  0  0  0  0  0  0  0  0  0  0  0
    3.9940   -7.9540  -30.8280 C   0  0  0  0  0  0  0  0  0  0  0  0
    4.6290   -6.8200  -30.4010 N   0  0  0  0  0  0  0  0  0  0  0  0
    3.0860   -7.9310  -31.6460 O   0  0  0  0  0  0  0  0  0  0  0  0
    4.3700   -5.9370  -30.8190 H   0  0  0  0  0  0  0  0  0  0  0  0
    5.3660   -6.8360  -29.7090 H   0  0  0  0  0  0  0  0  0  0  0  0
  1  9  1  0  0  0  0
  2  1  2  0  0  0  0
  3  2  1  0  0  0  0
  4  3  2  0  0  0  0
  4  5  1  0  0  0  0
  5  6  2  0  0  0  0
  6  1  1  0  0  0  0
  7  8  2  0  0  0  0
  9 10  1  0  0  0  0
  9  7  1  0  0  0  0
 11 12  1  0  0  0  0
 11 15  2  0  0  0  0
 12 13  2  0  0  0  0
 13 14  1  0  0  0  0
 13  7  1  0  0  0  0
 14 16  1  0  0  0  0
 15 14  1  0  0  0  0
 18 11  1  0  0  0  0
 18 17  1  0  0  0  0
 19 18  1  0  0  0  0
 20  5  1  0  0  0  0
 21 20  1  0  0  0  0
 22 21  1  0  0  0  0
 23 21  1  0  0  0  0
 23 24  1  0  0  0  0
 25 24  2  0  0  0  0
 26 25  1  0  0  0  0
 27 32  1  0  0  0  0
 27 26  2  0  0  0  0
 28 27  1  0  0  0  0
 29 30  1  0  0  0  0
 29 28  2  0  0  0  0
 30 31  2  0  0  0  0
 31 32  1  0  0  0  0
 32 23  2  0  0  0  0
 33 34  1  0  0  0  0
 33 28  1  0  0  0  0
 34 37  1  0  0  0  0
 35 33  2  0  0  0  0
 36 34  1  0  0  0  0
M  END
>  <minimizedAffinity>
-7.19908285

$$$$
