REMARK  Name = 
REMARK  9 active torsions:
REMARK  status: ('A' for Active; 'I' for Inactive)
REMARK    1  A    between atoms: C_1  and  C_2
REMARK    2  A    between atoms: C_2  and  C_3
REMARK    3  A    between atoms: C_2  and  C_4
REMARK    4  A    between atoms: C_6  and  C_7
REMARK    5  A    between atoms: N_9  and  C_10
REMARK    6  A    between atoms: C_14  and  C_15
REMARK    7  A    between atoms: C_15  and  N_16
REMARK    8  A    between atoms: N_16  and  C_17
REMARK    9  A    between atoms: C_22  and  C_23
REMARK                            x       y       z     vdW  Elec       q    Type
REMARK                         _______ _______ _______ _____ _____    ______ ____
ROOT
ATOM      1  C   UNL     1      -2.579  -4.527   1.234  0.00  0.00    +0.034 A 
ATOM      2  C   UNL     1      -2.420  -5.802   0.692  0.00  0.00    +0.023 A 
ATOM      3  C   UNL     1      -1.202  -6.461   0.822  0.00  0.00    +0.002 A 
ATOM      4  C   UNL     1      -0.153  -5.854   1.514  0.00  0.00    +0.005 A 
ATOM      5  C   UNL     1      -0.320  -4.620   2.161  0.00  0.00    -0.029 A 
ATOM      6  C   UNL     1      -1.561  -3.981   2.030  0.00  0.00    +0.028 A 
ENDROOT
BRANCH   1   9
ATOM      7  C   UNL     1      -4.023  -2.487   0.867  0.00  0.00    +0.266 C 
ATOM      8  O   UNL     1      -5.193  -2.107   0.912  0.00  0.00    -0.268 OA
ATOM      9  N   UNL     1      -3.769  -3.841   0.931  0.00  0.00    -0.280 N 
ATOM     10  H   UNL     1      -4.580  -4.399   0.696  0.00  0.00    +0.155 HD
BRANCH   7  13
ATOM     11  C   UNL     1      -1.028  -0.453   0.398  0.00  0.00    +0.066 A 
ATOM     12  C   UNL     1      -1.702  -1.653   0.081  0.00  0.00    +0.057 A 
ATOM     13  C   UNL     1      -2.938  -1.555   0.693  0.00  0.00    +0.121 A 
ATOM     14  N   UNL     1      -3.005  -0.260   1.125  0.00  0.00    -0.272 N 
ATOM     15  N   UNL     1      -1.839   0.404   1.032  0.00  0.00    -0.178 NA
ATOM     16  H   UNL     1      -3.801   0.202   1.555  0.00  0.00    +0.189 HD
BRANCH  11  18
ATOM     17  C   UNL     1       0.597   1.046  -0.800  0.00  0.00    +0.014 C 
ATOM     18  C   UNL     1       0.419  -0.137   0.149  0.00  0.00    +0.033 C 
ATOM     19  C   UNL     1       1.176   0.095   1.460  0.00  0.00    +0.014 C 
ENDBRANCH  11  18
ENDBRANCH   7  13
ENDBRANCH   1   9
BRANCH   5  20
ATOM     20  C   UNL     1       0.822  -3.933   2.899  0.00  0.00    +0.138 C 
BRANCH  20  21
ATOM     21  N   UNL     1       1.280  -4.693   4.047  0.00  0.00    -0.324 N 
ATOM     22  H   UNL     1       0.892  -4.490   4.953  0.00  0.00    +0.148 HD
BRANCH  21  23
ATOM     23  C   UNL     1       2.059  -5.821   3.844  0.00  0.00    +0.130 A 
ATOM     24  N   UNL     1       2.962  -5.761   2.848  0.00  0.00    -0.220 NA
ATOM     25  C   UNL     1       3.459  -6.917   2.416  0.00  0.00    +0.223 A 
ATOM     26  N   UNL     1       3.065  -8.126   2.818  0.00  0.00    -0.235 NA
ATOM     27  C   UNL     1       2.197  -8.188   3.847  0.00  0.00    +0.088 A 
ATOM     28  C   UNL     1       1.695  -9.410   4.309  0.00  0.00    +0.063 A 
ATOM     29  C   UNL     1       0.880  -9.521   5.445  0.00  0.00    +0.015 A 
ATOM     30  C   UNL     1       0.484  -8.375   6.113  0.00  0.00    +0.002 A 
ATOM     31  C   UNL     1       0.868  -7.136   5.610  0.00  0.00    +0.013 A 
ATOM     32  C   UNL     1       1.715  -7.031   4.473  0.00  0.00    +0.041 A 
BRANCH  28  33
ATOM     33  C   UNL     1       1.889 -10.644   3.524  0.00  0.00    +0.244 C 
ATOM     34  N   UNL     1       1.354 -10.626   2.264  0.00  0.00    -0.325 N 
ATOM     35  O   UNL     1       2.384 -11.649   4.013  0.00  0.00    -0.270 OA
ATOM     36  H   UNL     1       1.420 -11.463   1.702  0.00  0.00    +0.145 HD
ATOM     37  H   UNL     1       0.926  -9.801   1.866  0.00  0.00    +0.145 HD
ENDBRANCH  28  33
ENDBRANCH  21  23
ENDBRANCH  20  21
ENDBRANCH   5  20
TORSDOF 7
