
 OpenBabel10152419303D

 30 33  0  0  0  0  0  0  0  0999 V2000
    2.5280   -8.2190  -26.7030 C   0  0  0  0  0  0  0  0  0  0  0  0
    2.1230   -9.2150  -25.8870 N   0  0  0  0  0  0  0  0  0  0  0  0
    2.9240  -10.2800  -25.7680 C   0  0  0  0  0  0  0  0  0  0  0  0
    2.6440  -11.2970  -24.8630 N   0  0  0  0  0  0  0  0  0  0  0  0
    4.0870  -10.4010  -26.4330 N   0  0  0  0  0  0  0  0  0  0  0  0
    4.4530   -9.3780  -27.2380 C   0  0  0  0  0  3  0  0  0  0  0  0
    3.7140   -8.2340  -27.4040 C   0  0  0  0  0  0  0  0  0  0  0  0
    4.2690   -6.9540  -28.3950 Cl  0  0  0  0  0  0  0  0  0  0  0  0
    3.4230  -11.9350  -24.7980 H   0  0  0  0  0  0  0  0  0  0  0  0
    1.5490  -11.5210  -24.0240 C   0  0  0  0  0  0  0  0  0  0  0  0
    1.4730  -12.7260  -23.3120 C   0  0  0  0  0  3  0  0  0  0  0  0
    0.4510  -12.9590  -22.3820 C   0  0  0  0  0  3  0  0  0  0  0  0
   -0.5330  -11.9920  -22.1510 C   0  0  0  0  0  0  0  0  0  0  0  0
   -0.4780  -10.7990  -22.8800 C   0  0  0  0  0  3  0  0  0  0  0  0
    0.5600  -10.5610  -23.7870 C   0  0  0  0  0  3  0  0  0  0  0  0
   -1.5930  -12.1880  -21.1730 C   0  0  0  0  0  0  0  0  0  0  0  0
   -1.6530  -11.7290  -19.9370 N   0  0  0  0  0  0  0  0  0  0  0  0
   -2.8270  -12.2020  -19.4010 N   0  0  0  0  0  0  0  0  0  0  0  0
   -3.4760  -12.9590  -20.2730 N   0  0  0  0  0  0  0  0  0  0  0  0
   -2.7060  -12.9580  -21.3690 N   0  0  0  0  0  0  0  0  0  0  0  0
   -2.9770  -13.5110  -22.1710 H   0  0  0  0  0  0  0  0  0  0  0  0
    1.7380   -7.0920  -26.6870 O   0  0  0  0  0  0  0  0  0  0  0  0
   -1.7000   -7.2400  -24.3100 C   0  0  0  0  0  0  0  0  0  0  0  0
   -1.6520   -7.7950  -25.5890 C   0  0  0  0  0  3  0  0  0  0  0  0
   -0.4860   -7.7150  -26.3530 C   0  0  0  0  0  3  0  0  0  0  0  0
    0.6470   -7.0720  -25.8490 C   0  0  0  0  0  0  0  0  0  0  0  0
    0.5920   -6.4880  -24.5810 C   0  0  0  0  0  3  0  0  0  0  0  0
   -0.5770   -6.5780  -23.8120 C   0  0  0  0  0  3  0  0  0  0  0  0
   -2.8510   -8.0470  -22.3950 C   0  0  0  0  0  1  0  0  0  0  0  0
   -2.8920   -7.4040  -23.6620 O   0  0  0  0  0  0  0  0  0  0  0  0
  1 22  1  0  0  0  0
  1  2  2  0  0  0  0
  2  3  1  0  0  0  0
  3  4  1  0  0  0  0
  4  9  1  0  0  0  0
  4 10  1  0  0  0  0
  5  3  2  0  0  0  0
  6  5  1  0  0  0  0
  7  6  2  0  0  0  0
  7  1  1  0  0  0  0
  8  7  1  0  0  0  0
 10 15  2  0  0  0  0
 10 11  1  0  0  0  0
 11 12  2  0  0  0  0
 12 13  1  0  0  0  0
 13 16  1  0  0  0  0
 14 13  2  0  0  0  0
 15 14  1  0  0  0  0
 16 17  2  0  0  0  0
 17 18  1  0  0  0  0
 19 18  2  0  0  0  0
 20 16  1  0  0  0  0
 20 19  1  0  0  0  0
 21 20  1  0  0  0  0
 22 26  1  0  0  0  0
 23 28  1  0  0  0  0
 23 30  1  0  0  0  0
 24 23  2  0  0  0  0
 25 26  2  0  0  0  0
 25 24  1  0  0  0  0
 26 27  1  0  0  0  0
 27 28  2  0  0  0  0
 30 29  1  0  0  0  0
M  END
>  <minimizedAffinity>
-9.7617588

$$$$
