
 OpenBabel10152419303D

 30 33  0  0  0  0  0  0  0  0999 V2000
    3.0750   -7.8440  -27.5630 C   0  0  0  0  0  0  0  0  0  0  0  0
    2.0070   -7.4450  -26.8400 N   0  0  0  0  0  0  0  0  0  0  0  0
    1.2390   -6.4780  -27.3550 C   0  0  0  0  0  0  0  0  0  0  0  0
    0.0570   -6.0880  -26.7350 N   0  0  0  0  0  0  0  0  0  0  0  0
    1.4970   -5.8870  -28.5350 N   0  0  0  0  0  0  0  0  0  0  0  0
    2.5760   -6.3200  -29.2250 C   0  0  0  0  0  3  0  0  0  0  0  0
    3.4070   -7.3230  -28.7950 C   0  0  0  0  0  0  0  0  0  0  0  0
    4.7220   -7.8580  -29.7500 Cl  0  0  0  0  0  0  0  0  0  0  0  0
   -0.4640   -5.4650  -27.3330 H   0  0  0  0  0  0  0  0  0  0  0  0
   -0.5230   -6.4590  -25.5190 C   0  0  0  0  0  0  0  0  0  0  0  0
   -1.3830   -7.5660  -25.4870 C   0  0  0  0  0  3  0  0  0  0  0  0
   -1.9120   -8.0420  -24.2800 C   0  0  0  0  0  3  0  0  0  0  0  0
   -1.6020   -7.4100  -23.0710 C   0  0  0  0  0  0  0  0  0  0  0  0
   -0.7680   -6.2880  -23.1010 C   0  0  0  0  0  3  0  0  0  0  0  0
   -0.2210   -5.8340  -24.3060 C   0  0  0  0  0  3  0  0  0  0  0  0
   -2.1110   -7.8930  -21.7950 C   0  0  0  0  0  0  0  0  0  0  0  0
   -2.3460   -9.1400  -21.4340 N   0  0  0  0  0  0  0  0  0  0  0  0
   -2.8450   -9.0890  -20.1550 N   0  0  0  0  0  0  0  0  0  0  0  0
   -2.9440   -7.8380  -19.7330 N   0  0  0  0  0  0  0  0  0  0  0  0
   -2.4970   -7.0940  -20.7540 N   0  0  0  0  0  0  0  0  0  0  0  0
   -2.5140   -6.0860  -20.6840 H   0  0  0  0  0  0  0  0  0  0  0  0
    3.7530   -8.9290  -27.0560 O   0  0  0  0  0  0  0  0  0  0  0  0
    1.4100  -11.8590  -25.2080 C   0  0  0  0  0  0  0  0  0  0  0  0
    1.6270  -10.6060  -24.6350 C   0  0  0  0  0  3  0  0  0  0  0  0
    2.4240   -9.6600  -25.2820 C   0  0  0  0  0  3  0  0  0  0  0  0
    3.0200   -9.9580  -26.5090 C   0  0  0  0  0  0  0  0  0  0  0  0
    2.8310  -11.2230  -27.0700 C   0  0  0  0  0  3  0  0  0  0  0  0
    2.0230  -12.1690  -26.4220 C   0  0  0  0  0  3  0  0  0  0  0  0
   -0.5070  -12.0790  -23.8230 C   0  0  0  0  0  1  0  0  0  0  0  0
    0.5960  -12.6840  -24.4830 O   0  0  0  0  0  0  0  0  0  0  0  0
  1 22  1  0  0  0  0
  1  2  2  0  0  0  0
  3  2  1  0  0  0  0
  3  4  1  0  0  0  0
  4 10  1  0  0  0  0
  5  3  2  0  0  0  0
  6  7  2  0  0  0  0
  6  5  1  0  0  0  0
  7  1  1  0  0  0  0
  8  7  1  0  0  0  0
  9  4  1  0  0  0  0
 10 11  2  0  0  0  0
 10 15  1  0  0  0  0
 11 12  1  0  0  0  0
 12 13  2  0  0  0  0
 13 16  1  0  0  0  0
 14 13  1  0  0  0  0
 15 14  2  0  0  0  0
 16 17  2  0  0  0  0
 16 20  1  0  0  0  0
 17 18  1  0  0  0  0
 18 19  2  0  0  0  0
 20 21  1  0  0  0  0
 20 19  1  0  0  0  0
 22 26  1  0  0  0  0
 23 24  1  0  0  0  0
 23 30  1  0  0  0  0
 25 24  2  0  0  0  0
 26 25  1  0  0  0  0
 27 26  2  0  0  0  0
 27 28  1  0  0  0  0
 28 23  2  0  0  0  0
 30 29  1  0  0  0  0
M  END
>  <minimizedAffinity>
-8.38541412

$$$$
