REMARK  Name = 
REMARK  6 active torsions:
REMARK  status: ('A' for Active; 'I' for Inactive)
REMARK    1  A    between atoms: C_1  and  O_2
REMARK    2  A    between atoms: O_2  and  C_3
REMARK    3  A    between atoms: C_6  and  O_7
REMARK    4  A    between atoms: O_7  and  C_8
REMARK    5  A    between atoms: N_11  and  C_12
REMARK    6  A    between atoms: C_15  and  C_16
REMARK                            x       y       z     vdW  Elec       q    Type
REMARK                         _______ _______ _______ _____ _____    ______ ____
ROOT
ATOM      1  C   UNL     1       3.524   5.280   3.685  0.00  0.00    +0.243 A 
ATOM      2  N   UNL     1       3.506   5.048   5.015  0.00  0.00    -0.178 NA
ATOM      3  C   UNL     1       4.665   5.156   5.676  0.00  0.00    +0.223 A 
ATOM      4  N   UNL     1       4.719   5.049   7.061  0.00  0.00    -0.284 N 
ATOM      5  N   UNL     1       5.827   5.463   5.073  0.00  0.00    -0.221 NA
ATOM      6  C   UNL     1       5.796   5.689   3.740  0.00  0.00    +0.139 A 
ATOM      7  C   UNL     1       4.655   5.630   2.981  0.00  0.00    +0.121 A 
ATOM      8 CL   UNL     1       4.682   5.985   1.307  0.00  0.00    -0.076 Cl
ATOM      9  H   UNL     1       5.634   5.306   7.398  0.00  0.00    +0.155 HD
ENDROOT
BRANCH   4  10
ATOM     10  C   UNL     1       3.742   4.733   8.009  0.00  0.00    +0.034 A 
ATOM     11  C   UNL     1       3.840   5.282   9.295  0.00  0.00    +0.024 A 
ATOM     12  C   UNL     1       2.837   5.079  10.252  0.00  0.00    +0.018 A 
ATOM     13  C   UNL     1       1.711   4.306   9.947  0.00  0.00    +0.070 A 
ATOM     14  C   UNL     1       1.622   3.732   8.675  0.00  0.00    +0.018 A 
ATOM     15  C   UNL     1       2.614   3.961   7.715  0.00  0.00    +0.024 A 
BRANCH  13  16
ATOM     16  C   UNL     1       0.636   4.097  10.906  0.00  0.00    +0.373 C 
ATOM     17  N   UNL     1      -0.143   3.040  11.036  0.00  0.00    +0.105 NA
ATOM     18  N   UNL     1      -1.021   3.324  12.054  0.00  0.00    +0.113 NA
ATOM     19  N   UNL     1      -0.813   4.540  12.535  0.00  0.00    +0.060 NA
ATOM     20  N   UNL     1       0.209   5.024  11.817  0.00  0.00    -0.084 N 
ATOM     21  H   UNL     1       0.528   5.970  11.975  0.00  0.00    +0.329 HD
ENDBRANCH  13  16
ENDBRANCH   4  10
BRANCH   1  22
ATOM     22  O   UNL     1       2.289   5.289   3.077  0.00  0.00    -0.437 OA
BRANCH  22  26
ATOM     23  C   UNL     1       0.782   1.953   1.055  0.00  0.00    +0.120 A 
ATOM     24  C   UNL     1       0.106   3.173   1.090  0.00  0.00    +0.049 A 
ATOM     25  C   UNL     1       0.641   4.259   1.785  0.00  0.00    +0.050 A 
ATOM     26  C   UNL     1       1.857   4.137   2.460  0.00  0.00    +0.131 A 
ATOM     27  C   UNL     1       2.521   2.908   2.453  0.00  0.00    +0.050 A 
ATOM     28  C   UNL     1       1.986   1.821   1.747  0.00  0.00    +0.049 A 
BRANCH  23  30
ATOM     29  C   UNL     1       0.890  -0.222   0.106  0.00  0.00    +0.277 C 
ATOM     30  O   UNL     1       0.161   0.978   0.325  0.00  0.00    -0.495 OA
ENDBRANCH  23  30
ENDBRANCH  22  26
ENDBRANCH   1  22
TORSDOF 5
