
 OpenBabel10152418193D

 39 42  0  0  0  0  0  0  0  0999 V2000
    2.2530  -11.6180  -26.7200 C   0  0  0  0  0  0  0  0  0  0  0  0
    3.0170  -12.0350  -25.6240 C   0  0  0  0  0  3  0  0  0  0  0  0
    4.3670  -11.6950  -25.5400 C   0  0  0  0  0  3  0  0  0  0  0  0
    4.9740  -10.9520  -26.5570 C   0  0  0  0  0  3  0  0  0  0  0  0
    4.2430  -10.5630  -27.6790 C   0  0  0  0  0  0  0  0  0  0  0  0
    2.8830  -10.8810  -27.7400 C   0  0  0  0  0  3  0  0  0  0  0  0
    4.7690   -9.8220  -28.7520 N   0  0  0  0  0  0  0  0  0  0  0  0
    4.3100   -8.7060  -29.4100 C   0  0  0  0  0  0  0  0  0  0  0  0
    4.7640   -8.4060  -30.5130 O   0  0  0  0  0  0  0  0  0  0  0  0
    5.6280  -10.1720  -29.1630 H   0  0  0  0  0  0  0  0  0  0  0  0
    3.3440   -7.7840  -28.7750 C   0  0  0  0  0  0  0  0  0  0  0  0
    2.8440   -6.7160  -29.5200 C   0  0  0  0  0  3  0  0  0  0  0  0
    1.9310   -5.8360  -28.9370 C   0  0  0  0  0  3  0  0  0  0  0  0
    1.5310   -6.0100  -27.6060 C   0  0  0  0  0  0  0  0  0  0  0  0
    0.3740   -4.8960  -26.9750 Cl  0  0  0  0  0  0  0  0  0  0  0  0
    2.0550   -7.0550  -26.8330 C   0  0  0  0  0  0  0  0  0  0  0  0
    2.9790   -7.9350  -27.4310 C   0  0  0  0  0  3  0  0  0  0  0  0
    1.6410   -7.2620  -25.4010 C   0  0  0  0  0  0  0  0  0  0  0  0
    0.5150   -6.5790  -25.0610 F   0  0  0  0  0  0  0  0  0  0  0  0
    1.4070   -8.5700  -25.1040 F   0  0  0  0  0  0  0  0  0  0  0  0
    2.5920   -6.8540  -24.5090 F   0  0  0  0  0  0  0  0  0  0  0  0
    0.8050  -12.0360  -26.8590 C   0  0  0  0  0  2  0  0  0  0  0  0
   -2.2110   -9.1750  -22.4090 C   0  0  0  0  0  0  0  0  0  0  0  0
   -1.9990  -10.0740  -21.3510 C   0  0  0  0  0  3  0  0  0  0  0  0
   -1.3090  -11.2520  -21.5850 C   0  0  0  0  0  3  0  0  0  0  0  0
   -0.8440  -11.5200  -22.8690 C   0  0  0  0  0  3  0  0  0  0  0  0
   -1.0660  -10.6160  -23.9440 C   0  0  0  0  0  0  0  0  0  0  0  0
   -0.6080  -10.8240  -25.2610 C   0  0  0  0  0  0  0  0  0  0  0  0
    0.1460  -11.9530  -25.5680 N   0  0  0  0  0  0  0  0  0  0  0  0
   -0.8040   -9.9230  -26.2360 N   0  0  0  0  0  0  0  0  0  0  0  0
   -1.4700   -8.8170  -25.9070 C   0  0  0  0  0  3  0  0  0  0  0  0
   -1.9440   -8.5180  -24.6970 N   0  0  0  0  0  0  0  0  0  0  0  0
   -1.7590   -9.4140  -23.7130 C   0  0  0  0  0  0  0  0  0  0  0  0
   -0.1860  -12.8300  -25.1900 H   0  0  0  0  0  0  0  0  0  0  0  0
   -2.4200   -7.1560  -21.1170 N   0  0  0  0  0  0  0  0  0  0  0  0
   -2.9570   -7.9370  -22.1040 C   0  0  0  0  0  0  0  0  0  0  0  0
   -4.0100   -7.6540  -22.6530 O   0  0  0  0  0  0  0  0  0  0  0  0
   -2.9060   -6.2990  -20.8860 H   0  0  0  0  0  0  0  0  0  0  0  0
   -1.5380   -7.3540  -20.6680 H   0  0  0  0  0  0  0  0  0  0  0  0
  1  2  1  0  0  0  0
  2  3  2  0  0  0  0
  4  3  1  0  0  0  0
  5  4  2  0  0  0  0
  6  5  1  0  0  0  0
  6  1  2  0  0  0  0
  7  5  1  0  0  0  0
  8 11  1  0  0  0  0
  8  7  1  0  0  0  0
  9  8  2  0  0  0  0
 10  7  1  0  0  0  0
 11 17  1  0  0  0  0
 12 13  1  0  0  0  0
 12 11  2  0  0  0  0
 13 14  2  0  0  0  0
 14 15  1  0  0  0  0
 14 16  1  0  0  0  0
 16 18  1  0  0  0  0
 17 16  2  0  0  0  0
 18 20  1  0  0  0  0
 18 19  1  0  0  0  0
 18 21  1  0  0  0  0
 22  1  1  0  0  0  0
 22 29  1  0  0  0  0
 23 36  1  0  0  0  0
 23 24  1  0  0  0  0
 25 24  2  0  0  0  0
 26 25  1  0  0  0  0
 27 33  1  0  0  0  0
 27 26  2  0  0  0  0
 28 27  1  0  0  0  0
 29 28  1  0  0  0  0
 29 34  1  0  0  0  0
 30 31  1  0  0  0  0
 30 28  2  0  0  0  0
 31 32  2  0  0  0  0
 32 33  1  0  0  0  0
 33 23  2  0  0  0  0
 35 38  1  0  0  0  0
 35 39  1  0  0  0  0
 36 35  1  0  0  0  0
 37 36  2  0  0  0  0
M  END
>  <minimizedAffinity>
-8.27183914

$$$$
