
 OpenBabel10152418193D

 39 42  0  0  0  0  0  0  0  0999 V2000
    3.2720  -10.9790  -26.6280 C   0  0  0  0  0  0  0  0  0  0  0  0
    2.9890  -12.0390  -27.4970 C   0  0  0  0  0  3  0  0  0  0  0  0
    3.2580  -11.9190  -28.8610 C   0  0  0  0  0  3  0  0  0  0  0  0
    3.7920  -10.7340  -29.3740 C   0  0  0  0  0  3  0  0  0  0  0  0
    4.0410   -9.6490  -28.5330 C   0  0  0  0  0  0  0  0  0  0  0  0
    3.7990   -9.7890  -27.1640 C   0  0  0  0  0  3  0  0  0  0  0  0
    4.5700   -8.4170  -28.9600 N   0  0  0  0  0  0  0  0  0  0  0  0
    3.9790   -7.2030  -29.2160 C   0  0  0  0  0  0  0  0  0  0  0  0
    4.5740   -6.3500  -29.8730 O   0  0  0  0  0  0  0  0  0  0  0  0
    5.5640   -8.4000  -29.1600 H   0  0  0  0  0  0  0  0  0  0  0  0
    2.6700   -6.8480  -28.6290 C   0  0  0  0  0  0  0  0  0  0  0  0
    2.3450   -5.5000  -28.4740 C   0  0  0  0  0  3  0  0  0  0  0  0
    1.1130   -5.1470  -27.9220 C   0  0  0  0  0  3  0  0  0  0  0  0
    0.2130   -6.1360  -27.5080 C   0  0  0  0  0  0  0  0  0  0  0  0
   -1.3010   -5.6110  -26.8660 Cl  0  0  0  0  0  0  0  0  0  0  0  0
    0.5410   -7.4940  -27.6200 C   0  0  0  0  0  0  0  0  0  0  0  0
    1.7890   -7.8390  -28.1760 C   0  0  0  0  0  3  0  0  0  0  0  0
   -0.4100   -8.5750  -27.1810 C   0  0  0  0  0  0  0  0  0  0  0  0
   -1.2740   -8.9620  -28.1580 F   0  0  0  0  0  0  0  0  0  0  0  0
    0.2310   -9.7000  -26.7610 F   0  0  0  0  0  0  0  0  0  0  0  0
   -1.1970   -8.1960  -26.1320 F   0  0  0  0  0  0  0  0  0  0  0  0
    2.9240  -11.0700  -25.1580 C   0  0  0  0  0  2  0  0  0  0  0  0
   -1.4520   -7.5030  -22.8740 C   0  0  0  0  0  0  0  0  0  0  0  0
   -0.9620   -6.2420  -23.2490 C   0  0  0  0  0  3  0  0  0  0  0  0
    0.2600   -6.1490  -23.8940 C   0  0  0  0  0  3  0  0  0  0  0  0
    0.9780   -7.3130  -24.1530 C   0  0  0  0  0  3  0  0  0  0  0  0
    0.4890   -8.5900  -23.7660 C   0  0  0  0  0  0  0  0  0  0  0  0
    1.1620   -9.8050  -24.0120 C   0  0  0  0  0  0  0  0  0  0  0  0
    2.3670   -9.8070  -24.7090 N   0  0  0  0  0  0  0  0  0  0  0  0
    0.6420  -10.9920  -23.6660 N   0  0  0  0  0  0  0  0  0  0  0  0
   -0.5450  -10.9760  -23.0590 C   0  0  0  0  0  3  0  0  0  0  0  0
   -1.2670   -9.8900  -22.7800 N   0  0  0  0  0  0  0  0  0  0  0  0
   -0.7550   -8.6940  -23.1170 C   0  0  0  0  0  0  0  0  0  0  0  0
    3.0410   -9.1030  -24.4400 H   0  0  0  0  0  0  0  0  0  0  0  0
   -2.7020   -7.5580  -20.8190 N   0  0  0  0  0  0  0  0  0  0  0  0
   -2.7580   -7.5430  -22.1860 C   0  0  0  0  0  0  0  0  0  0  0  0
   -3.8170   -7.6130  -22.7910 O   0  0  0  0  0  0  0  0  0  0  0  0
   -3.5800   -7.5820  -20.3170 H   0  0  0  0  0  0  0  0  0  0  0  0
   -1.8430   -7.4730  -20.2960 H   0  0  0  0  0  0  0  0  0  0  0  0
  1 22  1  0  0  0  0
  2  1  2  0  0  0  0
  3  2  1  0  0  0  0
  4  3  2  0  0  0  0
  4  5  1  0  0  0  0
  5  6  2  0  0  0  0
  6  1  1  0  0  0  0
  7  5  1  0  0  0  0
  8  7  1  0  0  0  0
  8 11  1  0  0  0  0
  9  8  2  0  0  0  0
 10  7  1  0  0  0  0
 11 12  2  0  0  0  0
 11 17  1  0  0  0  0
 12 13  1  0  0  0  0
 13 14  2  0  0  0  0
 14 15  1  0  0  0  0
 16 14  1  0  0  0  0
 16 18  1  0  0  0  0
 17 16  2  0  0  0  0
 18 20  1  0  0  0  0
 18 21  1  0  0  0  0
 19 18  1  0  0  0  0
 22 29  1  0  0  0  0
 23 36  1  0  0  0  0
 24 23  2  0  0  0  0
 25 24  1  0  0  0  0
 26 25  2  0  0  0  0
 26 27  1  0  0  0  0
 27 33  1  0  0  0  0
 28 27  2  0  0  0  0
 28 30  1  0  0  0  0
 29 34  1  0  0  0  0
 29 28  1  0  0  0  0
 30 31  2  0  0  0  0
 31 32  1  0  0  0  0
 33 23  1  0  0  0  0
 33 32  2  0  0  0  0
 35 38  1  0  0  0  0
 35 39  1  0  0  0  0
 36 35  1  0  0  0  0
 37 36  2  0  0  0  0
M  END
>  <minimizedAffinity>
-7.1917038

$$$$
