
 OpenBabel10152418193D

 39 42  0  0  0  0  0  0  0  0999 V2000
   -0.3510   -6.0150  -27.4050 C   0  0  0  0  0  0  0  0  0  0  0  0
   -0.3620   -4.6890  -26.9600 C   0  0  0  0  0  3  0  0  0  0  0  0
    0.6130   -3.7930  -27.3980 C   0  0  0  0  0  3  0  0  0  0  0  0
    1.6210   -4.2160  -28.2690 C   0  0  0  0  0  3  0  0  0  0  0  0
    1.6770   -5.5450  -28.6910 C   0  0  0  0  0  0  0  0  0  0  0  0
    0.6770   -6.4270  -28.2720 C   0  0  0  0  0  3  0  0  0  0  0  0
    2.6550   -6.0620  -29.5600 N   0  0  0  0  0  0  0  0  0  0  0  0
    3.6050   -7.0410  -29.3940 C   0  0  0  0  0  0  0  0  0  0  0  0
    4.5560   -7.1210  -30.1710 O   0  0  0  0  0  0  0  0  0  0  0  0
    2.7210   -5.6270  -30.4740 H   0  0  0  0  0  0  0  0  0  0  0  0
    3.4620   -8.0810  -28.3530 C   0  0  0  0  0  0  0  0  0  0  0  0
    3.8370   -9.3910  -28.6550 C   0  0  0  0  0  3  0  0  0  0  0  0
    3.7080  -10.3860  -27.6840 C   0  0  0  0  0  3  0  0  0  0  0  0
    3.1880  -10.0790  -26.4210 C   0  0  0  0  0  0  0  0  0  0  0  0
    3.0950  -11.3620  -25.2710 Cl  0  0  0  0  0  0  0  0  0  0  0  0
    2.7700   -8.7770  -26.1160 C   0  0  0  0  0  0  0  0  0  0  0  0
    2.9010   -7.7810  -27.1050 C   0  0  0  0  0  3  0  0  0  0  0  0
    2.2070   -8.4230  -24.7660 C   0  0  0  0  0  0  0  0  0  0  0  0
    1.5240   -9.4440  -24.1830 F   0  0  0  0  0  0  0  0  0  0  0  0
    3.1680   -8.0410  -23.8800 F   0  0  0  0  0  0  0  0  0  0  0  0
    1.3260   -7.3810  -24.8140 F   0  0  0  0  0  0  0  0  0  0  0  0
   -1.3630   -7.0140  -26.8860 C   0  0  0  0  0  2  0  0  0  0  0  0
   -1.8230   -9.7920  -21.4860 C   0  0  0  0  0  0  0  0  0  0  0  0
   -1.8650   -8.6730  -20.6380 C   0  0  0  0  0  3  0  0  0  0  0  0
   -1.7390   -7.4040  -21.1760 C   0  0  0  0  0  3  0  0  0  0  0  0
   -1.5690   -7.2660  -22.5500 C   0  0  0  0  0  3  0  0  0  0  0  0
   -1.5150   -8.3960  -23.4100 C   0  0  0  0  0  0  0  0  0  0  0  0
   -1.3590   -8.3200  -24.8090 C   0  0  0  0  0  0  0  0  0  0  0  0
   -1.2860   -7.0810  -25.4380 N   0  0  0  0  0  0  0  0  0  0  0  0
   -1.3570   -9.4130  -25.5880 N   0  0  0  0  0  0  0  0  0  0  0  0
   -1.4950  -10.5890  -24.9750 C   0  0  0  0  0  3  0  0  0  0  0  0
   -1.6520  -10.7750  -23.6640 N   0  0  0  0  0  0  0  0  0  0  0  0
   -1.6510   -9.6890  -22.8730 C   0  0  0  0  0  0  0  0  0  0  0  0
   -0.6910   -6.3910  -25.0000 H   0  0  0  0  0  0  0  0  0  0  0  0
   -1.0060  -12.0380  -21.2120 N   0  0  0  0  0  0  0  0  0  0  0  0
   -1.9580  -11.1220  -20.8580 C   0  0  0  0  0  0  0  0  0  0  0  0
   -2.8870  -11.4050  -20.1170 O   0  0  0  0  0  0  0  0  0  0  0  0
   -1.0700  -12.9590  -20.7960 H   0  0  0  0  0  0  0  0  0  0  0  0
   -0.2150  -11.8210  -21.8000 H   0  0  0  0  0  0  0  0  0  0  0  0
  1  2  1  0  0  0  0
  1 22  1  0  0  0  0
  3  2  2  0  0  0  0
  4  3  1  0  0  0  0
  5  6  1  0  0  0  0
  5  4  2  0  0  0  0
  6  1  2  0  0  0  0
  7  8  1  0  0  0  0
  7  5  1  0  0  0  0
  8 11  1  0  0  0  0
  9  8  2  0  0  0  0
 10  7  1  0  0  0  0
 11 17  1  0  0  0  0
 12 11  2  0  0  0  0
 12 13  1  0  0  0  0
 13 14  2  0  0  0  0
 14 16  1  0  0  0  0
 14 15  1  0  0  0  0
 16 18  1  0  0  0  0
 17 16  2  0  0  0  0
 18 19  1  0  0  0  0
 18 20  1  0  0  0  0
 21 18  1  0  0  0  0
 22 29  1  0  0  0  0
 23 36  1  0  0  0  0
 23 24  1  0  0  0  0
 25 24  2  0  0  0  0
 26 25  1  0  0  0  0
 27 33  1  0  0  0  0
 27 26  2  0  0  0  0
 28 27  1  0  0  0  0
 29 34  1  0  0  0  0
 29 28  1  0  0  0  0
 30 31  1  0  0  0  0
 30 28  2  0  0  0  0
 31 32  2  0  0  0  0
 32 33  1  0  0  0  0
 33 23  2  0  0  0  0
 35 36  1  0  0  0  0
 35 38  1  0  0  0  0
 36 37  2  0  0  0  0
 39 35  1  0  0  0  0
M  END
>  <minimizedAffinity>
-9.04660511

$$$$
