
 OpenBabel10152418193D

 39 42  0  0  0  0  0  0  0  0999 V2000
    0.8150  -10.9680  -24.6180 C   0  0  0  0  0  0  0  0  0  0  0  0
   -0.0660  -11.6210  -25.4870 C   0  0  0  0  0  3  0  0  0  0  0  0
   -1.3840  -11.1810  -25.6110 C   0  0  0  0  0  3  0  0  0  0  0  0
   -1.8410  -10.0970  -24.8550 C   0  0  0  0  0  3  0  0  0  0  0  0
   -0.9920   -9.4600  -23.9500 C   0  0  0  0  0  0  0  0  0  0  0  0
    0.3350   -9.8870  -23.8560 C   0  0  0  0  0  3  0  0  0  0  0  0
   -1.3650   -8.3690  -23.1440 N   0  0  0  0  0  0  0  0  0  0  0  0
   -1.0970   -7.0240  -23.2370 C   0  0  0  0  0  0  0  0  0  0  0  0
   -1.2590   -6.2910  -22.2630 O   0  0  0  0  0  0  0  0  0  0  0  0
   -1.9010   -8.5870  -22.3110 H   0  0  0  0  0  0  0  0  0  0  0  0
   -0.7120   -6.4060  -24.5230 C   0  0  0  0  0  0  0  0  0  0  0  0
   -0.0290   -7.1780  -25.4630 C   0  0  0  0  0  3  0  0  0  0  0  0
    0.3420   -6.6110  -26.6830 C   0  0  0  0  0  3  0  0  0  0  0  0
    0.0500   -5.2700  -26.9580 C   0  0  0  0  0  0  0  0  0  0  0  0
    0.5160   -4.6580  -28.5030 Cl  0  0  0  0  0  0  0  0  0  0  0  0
   -0.6000   -4.4700  -26.0080 C   0  0  0  0  0  0  0  0  0  0  0  0
   -0.9670   -5.0520  -24.7790 C   0  0  0  0  0  3  0  0  0  0  0  0
   -0.9240   -3.0250  -26.2810 C   0  0  0  0  0  0  0  0  0  0  0  0
   -2.1120   -2.8510  -26.9200 F   0  0  0  0  0  0  0  0  0  0  0  0
   -0.9780   -2.2750  -25.1460 F   0  0  0  0  0  0  0  0  0  0  0  0
    0.0040   -2.4130  -27.0730 F   0  0  0  0  0  0  0  0  0  0  0  0
    2.2280  -11.4760  -24.4230 C   0  0  0  0  0  2  0  0  0  0  0  0
    4.3760   -9.3510  -29.7090 C   0  0  0  0  0  0  0  0  0  0  0  0
    4.5160  -10.5540  -30.4190 C   0  0  0  0  0  3  0  0  0  0  0  0
    4.2310  -11.7550  -29.7900 C   0  0  0  0  0  3  0  0  0  0  0  0
    3.8140  -11.7400  -28.4620 C   0  0  0  0  0  3  0  0  0  0  0  0
    3.6820  -10.5230  -27.7380 C   0  0  0  0  0  0  0  0  0  0  0  0
    3.2520  -10.4420  -26.3970 C   0  0  0  0  0  0  0  0  0  0  0  0
    2.8870  -11.5960  -25.7100 N   0  0  0  0  0  0  0  0  0  0  0  0
    3.1010   -9.2680  -25.7660 N   0  0  0  0  0  0  0  0  0  0  0  0
    3.3910   -8.1690  -26.4610 C   0  0  0  0  0  3  0  0  0  0  0  0
    3.8020   -8.1300  -27.7300 N   0  0  0  0  0  0  0  0  0  0  0  0
    3.9620   -9.3000  -28.3720 C   0  0  0  0  0  0  0  0  0  0  0  0
    3.5010  -12.3930  -25.8140 H   0  0  0  0  0  0  0  0  0  0  0  0
    4.8550   -6.9940  -29.6400 N   0  0  0  0  0  0  0  0  0  0  0  0
    4.6980   -8.1010  -30.4280 C   0  0  0  0  0  0  0  0  0  0  0  0
    4.7640   -8.0450  -31.6460 O   0  0  0  0  0  0  0  0  0  0  0  0
    5.0790   -6.1220  -30.1030 H   0  0  0  0  0  0  0  0  0  0  0  0
    4.8320   -7.0200  -28.6320 H   0  0  0  0  0  0  0  0  0  0  0  0
  1 22  1  0  0  0  0
  1  6  1  0  0  0  0
  2  1  2  0  0  0  0
  3  2  1  0  0  0  0
  3  4  2  0  0  0  0
  4  5  1  0  0  0  0
  5  6  2  0  0  0  0
  5  7  1  0  0  0  0
  7 10  1  0  0  0  0
  8  7  1  0  0  0  0
  8  9  2  0  0  0  0
 11  8  1  0  0  0  0
 12 11  2  0  0  0  0
 13 12  1  0  0  0  0
 14 13  2  0  0  0  0
 14 16  1  0  0  0  0
 15 14  1  0  0  0  0
 16 17  2  0  0  0  0
 17 11  1  0  0  0  0
 18 16  1  0  0  0  0
 18 20  1  0  0  0  0
 19 18  1  0  0  0  0
 21 18  1  0  0  0  0
 23 33  1  0  0  0  0
 24 25  1  0  0  0  0
 24 23  2  0  0  0  0
 25 26  2  0  0  0  0
 26 27  1  0  0  0  0
 27 28  1  0  0  0  0
 28 30  2  0  0  0  0
 28 29  1  0  0  0  0
 29 22  1  0  0  0  0
 31 30  1  0  0  0  0
 32 31  2  0  0  0  0
 33 27  2  0  0  0  0
 33 32  1  0  0  0  0
 34 29  1  0  0  0  0
 35 39  1  0  0  0  0
 36 23  1  0  0  0  0
 36 35  1  0  0  0  0
 37 36  2  0  0  0  0
 38 35  1  0  0  0  0
M  END
>  <minimizedAffinity>
-9.83295822

$$$$
