
 OpenBabel10152418193D

 39 42  0  0  0  0  0  0  0  0999 V2000
    2.3470  -11.4740  -26.7340 C   0  0  0  0  0  0  0  0  0  0  0  0
    3.2430  -12.0330  -25.8170 C   0  0  0  0  0  3  0  0  0  0  0  0
    4.5470  -11.5450  -25.7220 C   0  0  0  0  0  3  0  0  0  0  0  0
    4.9740  -10.5060  -26.5550 C   0  0  0  0  0  3  0  0  0  0  0  0
    4.1110   -9.9640  -27.5070 C   0  0  0  0  0  0  0  0  0  0  0  0
    2.7980  -10.4380  -27.5730 C   0  0  0  0  0  3  0  0  0  0  0  0
    4.4550   -8.9240  -28.3900 N   0  0  0  0  0  0  0  0  0  0  0  0
    3.8200   -7.7500  -28.7180 C   0  0  0  0  0  0  0  0  0  0  0  0
    4.1370   -7.1370  -29.7360 O   0  0  0  0  0  0  0  0  0  0  0  0
    5.3050   -9.0530  -28.9280 H   0  0  0  0  0  0  0  0  0  0  0  0
    2.8210   -7.1400  -27.8150 C   0  0  0  0  0  0  0  0  0  0  0  0
    2.6720   -7.6590  -26.5290 C   0  0  0  0  0  3  0  0  0  0  0  0
    1.7340   -7.0940  -25.6620 C   0  0  0  0  0  3  0  0  0  0  0  0
    0.9330   -6.0270  -26.0850 C   0  0  0  0  0  0  0  0  0  0  0  0
   -0.1770   -5.3680  -24.9390 Cl  0  0  0  0  0  0  0  0  0  0  0  0
    1.0430   -5.5210  -27.3870 C   0  0  0  0  0  0  0  0  0  0  0  0
    1.9900   -6.1010  -28.2540 C   0  0  0  0  0  3  0  0  0  0  0  0
    0.1920   -4.3750  -27.8640 C   0  0  0  0  0  0  0  0  0  0  0  0
   -0.2910   -3.6050  -26.8530 F   0  0  0  0  0  0  0  0  0  0  0  0
    0.8600   -3.5390  -28.7060 F   0  0  0  0  0  0  0  0  0  0  0  0
   -0.9080   -4.7850  -28.5620 F   0  0  0  0  0  0  0  0  0  0  0  0
    0.9520  -12.0390  -26.8960 C   0  0  0  0  0  2  0  0  0  0  0  0
   -2.1020   -9.0440  -22.5620 C   0  0  0  0  0  0  0  0  0  0  0  0
   -2.0070   -9.9700  -21.5100 C   0  0  0  0  0  3  0  0  0  0  0  0
   -1.3850  -11.1880  -21.7270 C   0  0  0  0  0  3  0  0  0  0  0  0
   -0.8700  -11.4690  -22.9900 C   0  0  0  0  0  3  0  0  0  0  0  0
   -0.9740  -10.5370  -24.0590 C   0  0  0  0  0  0  0  0  0  0  0  0
   -0.4610  -10.7580  -25.3540 C   0  0  0  0  0  0  0  0  0  0  0  0
    0.2320  -11.9300  -25.6410 N   0  0  0  0  0  0  0  0  0  0  0  0
   -0.5440   -9.8320  -26.3220 N   0  0  0  0  0  0  0  0  0  0  0  0
   -1.1530   -8.6880  -26.0100 C   0  0  0  0  0  3  0  0  0  0  0  0
   -1.6700   -8.3750  -24.8210 N   0  0  0  0  0  0  0  0  0  0  0  0
   -1.5970   -9.2950  -23.8440 C   0  0  0  0  0  0  0  0  0  0  0  0
   -0.1770  -12.7880  -25.2960 H   0  0  0  0  0  0  0  0  0  0  0  0
   -2.0300   -6.8420  -21.5940 N   0  0  0  0  0  0  0  0  0  0  0  0
   -2.7790   -7.7630  -22.2750 C   0  0  0  0  0  0  0  0  0  0  0  0
   -3.9450   -7.5580  -22.5730 O   0  0  0  0  0  0  0  0  0  0  0  0
   -2.4650   -5.9530  -21.3850 H   0  0  0  0  0  0  0  0  0  0  0  0
   -1.0570   -6.9780  -21.3620 H   0  0  0  0  0  0  0  0  0  0  0  0
  1  2  1  0  0  0  0
  2  3  2  0  0  0  0
  4  3  1  0  0  0  0
  5  4  2  0  0  0  0
  6  5  1  0  0  0  0
  6  1  2  0  0  0  0
  7  5  1  0  0  0  0
  8  7  1  0  0  0  0
  8 11  1  0  0  0  0
  9  8  2  0  0  0  0
 10  7  1  0  0  0  0
 11 12  1  0  0  0  0
 12 13  2  0  0  0  0
 14 13  1  0  0  0  0
 14 15  1  0  0  0  0
 16 14  2  0  0  0  0
 17 11  2  0  0  0  0
 17 16  1  0  0  0  0
 18 16  1  0  0  0  0
 18 19  1  0  0  0  0
 20 18  1  0  0  0  0
 21 18  1  0  0  0  0
 22  1  1  0  0  0  0
 22 29  1  0  0  0  0
 23 36  1  0  0  0  0
 23 24  1  0  0  0  0
 25 24  2  0  0  0  0
 26 25  1  0  0  0  0
 27 33  1  0  0  0  0
 27 26  2  0  0  0  0
 28 27  1  0  0  0  0
 29 28  1  0  0  0  0
 29 34  1  0  0  0  0
 30 31  1  0  0  0  0
 30 28  2  0  0  0  0
 31 32  2  0  0  0  0
 32 33  1  0  0  0  0
 33 23  2  0  0  0  0
 35 38  1  0  0  0  0
 35 39  1  0  0  0  0
 36 35  1  0  0  0  0
 37 36  2  0  0  0  0
M  END
>  <minimizedAffinity>
-8.93240738

$$$$
