REMARK  Name = 
REMARK  6 active torsions:
REMARK  status: ('A' for Active; 'I' for Inactive)
REMARK    1  A    between atoms: C_2  and  C_4
REMARK    2  A    between atoms: N_10  and  C_11
REMARK    3  A    between atoms: C_11  and  C_12
REMARK    4  A    between atoms: C_16  and  N_17
REMARK    5  A    between atoms: C_18  and  C_20
REMARK    6  A    between atoms: C_25  and  C_26
REMARK                            x       y       z     vdW  Elec       q    Type
REMARK                         _______ _______ _______ _____ _____    ______ ____
ROOT
ATOM      1  C   UNL     1       2.916  -8.870   2.247  0.00  0.00    -0.029 A 
ATOM      2  C   UNL     1       2.874 -10.154   2.800  0.00  0.00    +0.005 A 
ATOM      3  C   UNL     1       4.030 -10.933   2.854  0.00  0.00    +0.002 A 
ATOM      4  C   UNL     1       5.235 -10.446   2.339  0.00  0.00    +0.023 A 
ATOM      5  C   UNL     1       5.290  -9.186   1.743  0.00  0.00    +0.034 A 
ATOM      6  C   UNL     1       4.134  -8.400   1.722  0.00  0.00    +0.028 A 
ENDROOT
BRANCH   5   7
ATOM      7  N   UNL     1       6.453  -8.617   1.193  0.00  0.00    -0.281 N 
ATOM      8  C   UNL     1       7.648  -9.170   0.799  0.00  0.00    +0.248 C 
ATOM      9  O   UNL     1       8.637  -8.457   0.636  0.00  0.00    -0.270 OA
ATOM     10  H   UNL     1       6.455  -7.608   1.090  0.00  0.00    +0.155 HD
BRANCH   8  11
ATOM     11  C   UNL     1       7.755 -10.605   0.461  0.00  0.00    +0.038 A 
ATOM     12  C   UNL     1       8.850 -11.328   0.935  0.00  0.00    +0.014 A 
ATOM     13  C   UNL     1       8.967 -12.684   0.626  0.00  0.00    +0.021 A 
ATOM     14  C   UNL     1       8.003 -13.314  -0.171  0.00  0.00    +0.053 A 
ATOM     15 CL   UNL     1       8.208 -15.000  -0.477  0.00  0.00    -0.083 Cl
ATOM     16  C   UNL     1       6.919 -12.592  -0.688  0.00  0.00    +0.074 A 
ATOM     17  C   UNL     1       6.813 -11.223  -0.372  0.00  0.00    +0.027 A 
BRANCH  16  18
ATOM     18  C   UNL     1       5.871 -13.247  -1.547  0.00  0.00    +0.419 C 
ATOM     19  F   UNL     1       6.381 -13.845  -2.657  0.00  0.00    -0.166 F 
ATOM     20  F   UNL     1       5.165 -14.201  -0.880  0.00  0.00    -0.166 F 
ATOM     21  F   UNL     1       4.937 -12.365  -2.010  0.00  0.00    -0.166 F 
ENDBRANCH  16  18
ENDBRANCH   8  11
ENDBRANCH   5   7
BRANCH   1  22
ATOM     22  C   UNL     1       1.656  -8.040   2.120  0.00  0.00    +0.138 C 
BRANCH  22  29
ATOM     23  C   UNL     1       1.135  -1.997   1.583  0.00  0.00    +0.063 A 
ATOM     24  C   UNL     1       2.258  -1.587   2.320  0.00  0.00    +0.015 A 
ATOM     25  C   UNL     1       3.045  -2.537   2.949  0.00  0.00    +0.002 A 
ATOM     26  C   UNL     1       2.701  -3.881   2.838  0.00  0.00    +0.013 A 
ATOM     27  C   UNL     1       1.559  -4.298   2.101  0.00  0.00    +0.041 A 
ATOM     28  C   UNL     1       1.167  -5.643   1.941  0.00  0.00    +0.130 A 
ATOM     29  N   UNL     1       1.937  -6.665   2.489  0.00  0.00    -0.324 N 
ATOM     30  N   UNL     1       0.105  -5.994   1.200  0.00  0.00    -0.220 NA
ATOM     31  C   UNL     1      -0.582  -5.006   0.627  0.00  0.00    +0.223 A 
ATOM     32  N   UNL     1      -0.300  -3.705   0.710  0.00  0.00    -0.235 NA
ATOM     33  C   UNL     1       0.759  -3.340   1.453  0.00  0.00    +0.088 A 
ATOM     34  H   UNL     1       2.259  -6.524   3.437  0.00  0.00    +0.148 HD
BRANCH  23  36
ATOM     35  N   UNL     1       0.983  -0.198  -0.008  0.00  0.00    -0.325 N 
ATOM     36  C   UNL     1       0.329  -0.941   0.937  0.00  0.00    +0.244 C 
ATOM     37  O   UNL     1      -0.825  -0.707   1.261  0.00  0.00    -0.270 OA
ATOM     38  H   UNL     1       0.457   0.532  -0.471  0.00  0.00    +0.145 HD
ATOM     39  H   UNL     1       1.926  -0.389  -0.312  0.00  0.00    +0.145 HD
ENDBRANCH  23  36
ENDBRANCH  22  29
ENDBRANCH   1  22
TORSDOF 6
