
 OpenBabel10152418183D

 37 40  0  0  0  0  0  0  0  0999 V2000
    2.1460  -11.2980  -26.5670 C   0  0  0  0  0  0  0  0  0  0  0  0
    2.8970  -12.0380  -25.6470 C   0  0  0  0  0  3  0  0  0  0  0  0
    4.2840  -11.8990  -25.5880 C   0  0  0  0  0  3  0  0  0  0  0  0
    4.9460  -11.0380  -26.4660 C   0  0  0  0  0  3  0  0  0  0  0  0
    4.2290  -10.3160  -27.4180 C   0  0  0  0  0  0  0  0  0  0  0  0
    2.8320  -10.4350  -27.4420 C   0  0  0  0  0  3  0  0  0  0  0  0
    4.8040   -9.4260  -28.3430 N   0  0  0  0  0  0  0  0  0  0  0  0
    4.3630   -8.2470  -28.8970 C   0  0  0  0  0  0  0  0  0  0  0  0
    4.9740   -7.7390  -29.8360 O   0  0  0  0  0  0  0  0  0  0  0  0
    5.7240   -9.6720  -28.6950 H   0  0  0  0  0  0  0  0  0  0  0  0
    3.2430   -7.5000  -28.3300 C   0  0  0  0  0  0  0  0  0  0  0  0
    2.2970   -6.9240  -29.1710 C   0  0  0  0  0  0  0  0  0  0  0  0
    2.3500   -7.1140  -30.4970 F   0  0  0  0  0  0  0  0  0  0  0  0
    1.2500   -6.1690  -28.6500 C   0  0  0  0  0  3  0  0  0  0  0  0
    1.1660   -5.9780  -27.2710 C   0  0  0  0  0  0  0  0  0  0  0  0
   -0.1260   -5.0510  -26.6170 Cl  0  0  0  0  0  0  0  0  0  0  0  0
    2.1200   -6.5310  -26.4190 C   0  0  0  0  0  3  0  0  0  0  0  0
    3.1600   -7.2830  -26.9560 C   0  0  0  0  0  0  0  0  0  0  0  0
    4.0830   -7.7880  -26.1250 F   0  0  0  0  0  0  0  0  0  0  0  0
    0.6390  -11.4100  -26.6960 C   0  0  0  0  0  2  0  0  0  0  0  0
   -1.6740   -9.3490  -21.4310 C   0  0  0  0  0  0  0  0  0  0  0  0
   -1.8450  -10.5650  -20.7540 C   0  0  0  0  0  3  0  0  0  0  0  0
   -1.5000  -11.7470  -21.3850 C   0  0  0  0  0  3  0  0  0  0  0  0
   -1.0080  -11.7000  -22.6870 C   0  0  0  0  0  3  0  0  0  0  0  0
   -0.8520  -10.4670  -23.3790 C   0  0  0  0  0  0  0  0  0  0  0  0
   -0.3750  -10.3570  -24.7020 C   0  0  0  0  0  0  0  0  0  0  0  0
   -0.0520  -11.5040  -25.4230 N   0  0  0  0  0  0  0  0  0  0  0  0
   -0.1810   -9.1660  -25.2910 N   0  0  0  0  0  0  0  0  0  0  0  0
   -0.5030   -8.0830  -24.5820 C   0  0  0  0  0  3  0  0  0  0  0  0
   -0.9880   -8.0720  -23.3380 N   0  0  0  0  0  0  0  0  0  0  0  0
   -1.1720   -9.2600  -22.7350 C   0  0  0  0  0  0  0  0  0  0  0  0
   -0.7080  -12.2690  -25.3390 H   0  0  0  0  0  0  0  0  0  0  0  0
   -2.4570   -7.0810  -21.4980 N   0  0  0  0  0  0  0  0  0  0  0  0
   -2.0770   -8.1310  -20.7110 C   0  0  0  0  0  0  0  0  0  0  0  0
   -1.9920   -8.0500  -19.4960 O   0  0  0  0  0  0  0  0  0  0  0  0
   -2.7300   -6.2240  -21.0370 H   0  0  0  0  0  0  0  0  0  0  0  0
   -2.5320   -7.1430  -22.5030 H   0  0  0  0  0  0  0  0  0  0  0  0
  1  2  1  0  0  0  0
  2  3  2  0  0  0  0
  4  3  1  0  0  0  0
  5  4  2  0  0  0  0
  6  5  1  0  0  0  0
  6  1  2  0  0  0  0
  7  5  1  0  0  0  0
  8  7  1  0  0  0  0
  8 11  1  0  0  0  0
  9  8  2  0  0  0  0
 10  7  1  0  0  0  0
 11 18  1  0  0  0  0
 12 14  1  0  0  0  0
 12 11  2  0  0  0  0
 13 12  1  0  0  0  0
 14 15  2  0  0  0  0
 15 16  1  0  0  0  0
 15 17  1  0  0  0  0
 18 17  2  0  0  0  0
 18 19  1  0  0  0  0
 20  1  1  0  0  0  0
 20 27  1  0  0  0  0
 21 22  1  0  0  0  0
 21 34  1  0  0  0  0
 23 22  2  0  0  0  0
 24 23  1  0  0  0  0
 25 31  1  0  0  0  0
 25 24  2  0  0  0  0
 26 25  1  0  0  0  0
 27 32  1  0  0  0  0
 27 26  1  0  0  0  0
 28 26  2  0  0  0  0
 28 29  1  0  0  0  0
 29 30  2  0  0  0  0
 30 31  1  0  0  0  0
 31 21  2  0  0  0  0
 33 36  1  0  0  0  0
 33 34  1  0  0  0  0
 34 35  2  0  0  0  0
 37 33  1  0  0  0  0
M  END
>  <minimizedAffinity>
-7.47050428

$$$$
