REMARK  Name = 
REMARK  5 active torsions:
REMARK  status: ('A' for Active; 'I' for Inactive)
REMARK    1  A    between atoms: C_2  and  C_4
REMARK    2  A    between atoms: N_10  and  C_11
REMARK    3  A    between atoms: C_11  and  C_12
REMARK    4  A    between atoms: C_16  and  N_17
REMARK    5  A    between atoms: C_18  and  C_20
REMARK                            x       y       z     vdW  Elec       q    Type
REMARK                         _______ _______ _______ _____ _____    ______ ____
ROOT
ATOM      1  C   UNL     1       1.629   7.451  -5.099  0.00  0.00    -0.029 A 
ATOM      2  C   UNL     1       2.818   7.077  -4.463  0.00  0.00    +0.005 A 
ATOM      3  C   UNL     1       3.714   8.044  -4.008  0.00  0.00    +0.002 A 
ATOM      4  C   UNL     1       3.449   9.401  -4.204  0.00  0.00    +0.023 A 
ATOM      5  C   UNL     1       2.291   9.804  -4.867  0.00  0.00    +0.034 A 
ATOM      6  C   UNL     1       1.380   8.824  -5.286  0.00  0.00    +0.028 A 
ENDROOT
BRANCH   5   7
ATOM      7  N   UNL     1       1.937  11.143  -5.112  0.00  0.00    -0.281 N 
ATOM      8  C   UNL     1       2.657  12.314  -5.088  0.00  0.00    +0.254 C 
ATOM      9  O   UNL     1       2.078  13.397  -5.158  0.00  0.00    -0.270 OA
ATOM     10  H   UNL     1       0.967  11.316  -5.354  0.00  0.00    +0.155 HD
BRANCH   8  11
ATOM     11  C   UNL     1       4.118  12.322  -5.099  0.00  0.00    +0.107 A 
ATOM     12  C   UNL     1       4.816  12.933  -4.062  0.00  0.00    +0.140 A 
ATOM     13  F   UNL     1       4.168  13.444  -3.006  0.00  0.00    -0.205 F 
ATOM     14  C   UNL     1       6.207  12.991  -4.081  0.00  0.00    +0.059 A 
ATOM     15  C   UNL     1       6.899  12.445  -5.161  0.00  0.00    +0.046 A 
ATOM     16 CL   UNL     1       8.617  12.507  -5.191  0.00  0.00    -0.083 Cl
ATOM     17  C   UNL     1       6.211  11.850  -6.217  0.00  0.00    +0.059 A 
ATOM     18  C   UNL     1       4.820  11.800  -6.183  0.00  0.00    +0.140 A 
ATOM     19  F   UNL     1       4.173  11.246  -7.218  0.00  0.00    -0.205 F 
ENDBRANCH   8  11
ENDBRANCH   5   7
BRANCH   1  20
ATOM     20  C   UNL     1       0.618   6.454  -5.632  0.00  0.00    +0.138 C 
BRANCH  20  27
ATOM     21  C   UNL     1       0.871   1.405  -2.202  0.00  0.00    +0.063 A 
ATOM     22  C   UNL     1       1.837   0.681  -2.916  0.00  0.00    +0.015 A 
ATOM     23  C   UNL     1       2.389   1.230  -4.060  0.00  0.00    +0.002 A 
ATOM     24  C   UNL     1       1.955   2.483  -4.485  0.00  0.00    +0.013 A 
ATOM     25  C   UNL     1       0.962   3.209  -3.770  0.00  0.00    +0.041 A 
ATOM     26  C   UNL     1       0.472   4.473  -4.159  0.00  0.00    +0.130 A 
ATOM     27  N   UNL     1       0.942   5.072  -5.326  0.00  0.00    -0.324 N 
ATOM     28  N   UNL     1      -0.417   5.150  -3.416  0.00  0.00    -0.220 NA
ATOM     29  C   UNL     1      -0.855   4.553  -2.306  0.00  0.00    +0.223 A 
ATOM     30  N   UNL     1      -0.482   3.351  -1.860  0.00  0.00    -0.235 NA
ATOM     31  C   UNL     1       0.419   2.671  -2.591  0.00  0.00    +0.088 A 
ATOM     32  H   UNL     1       1.029   4.458  -6.124  0.00  0.00    +0.148 HD
BRANCH  21  34
ATOM     33  N   UNL     1       1.025   0.932   0.146  0.00  0.00    -0.325 N 
ATOM     34  C   UNL     1       0.312   0.757  -1.006  0.00  0.00    +0.244 C 
ATOM     35  O   UNL     1      -0.677   0.043  -1.069  0.00  0.00    -0.270 OA
ATOM     36  H   UNL     1       0.676   0.491   0.986  0.00  0.00    +0.145 HD
ATOM     37  H   UNL     1       1.842   1.523   0.205  0.00  0.00    +0.145 HD
ENDBRANCH  21  34
ENDBRANCH  20  27
ENDBRANCH   1  20
TORSDOF 5
