
 OpenBabel10152419313D

 29 32  0  0  0  0  0  0  0  0999 V2000
   -1.6450   -8.7800  -23.5490 C   0  0  0  0  0  0  0  0  0  0  0  0
   -0.6220   -9.5320  -24.0080 N   0  0  0  0  0  0  0  0  0  0  0  0
   -0.1610  -10.5000  -23.2040 C   0  0  0  0  0  0  0  0  0  0  0  0
    0.8050  -11.4010  -23.6400 N   0  0  0  0  0  0  0  0  0  0  0  0
   -0.6540  -10.7320  -21.9760 N   0  0  0  0  0  0  0  0  0  0  0  0
   -1.6800   -9.9550  -21.5600 C   0  0  0  0  0  3  0  0  0  0  0  0
   -2.2420   -8.9600  -22.3210 C   0  0  0  0  0  0  0  0  0  0  0  0
   -3.5860   -8.0650  -21.7520 Cl  0  0  0  0  0  0  0  0  0  0  0  0
    0.9200  -12.1440  -22.9670 H   0  0  0  0  0  0  0  0  0  0  0  0
    1.5410  -11.4790  -24.8250 C   0  0  0  0  0  0  0  0  0  0  0  0
    1.3310  -12.5670  -25.6840 C   0  0  0  0  0  3  0  0  0  0  0  0
    1.9700  -12.6450  -26.9300 C   0  0  0  0  0  3  0  0  0  0  0  0
    2.8480  -11.6370  -27.3410 C   0  0  0  0  0  0  0  0  0  0  0  0
    3.0830  -10.5630  -26.4760 C   0  0  0  0  0  3  0  0  0  0  0  0
    2.4210  -10.4770  -25.2450 C   0  0  0  0  0  3  0  0  0  0  0  0
    3.5080  -11.6730  -28.6380 C   0  0  0  0  0  0  0  0  0  0  0  0
    4.2300  -10.7280  -29.2080 N   0  0  0  0  0  0  0  0  0  0  0  0
    4.6120  -11.2150  -30.4360 N   0  0  0  0  0  0  0  0  0  0  0  0
    4.1200  -12.4270  -30.6390 N   0  0  0  0  0  0  0  0  0  0  0  0
    3.4260  -12.7090  -29.5300 N   0  0  0  0  0  0  0  0  0  0  0  0
    2.9170  -13.5780  -29.4640 H   0  0  0  0  0  0  0  0  0  0  0  0
   -2.1650   -7.8930  -24.4650 O   0  0  0  0  0  0  0  0  0  0  0  0
    1.3800   -5.0070  -27.5160 F   0  0  0  0  0  0  0  0  0  0  0  0
    0.5070   -5.7270  -26.8000 C   0  0  0  0  0  0  0  0  0  0  0  0
    0.0890   -5.2600  -25.5610 C   0  0  0  0  0  3  0  0  0  0  0  0
   -0.8150   -6.0170  -24.8150 C   0  0  0  0  0  3  0  0  0  0  0  0
   -1.2960   -7.2370  -25.3080 C   0  0  0  0  0  0  0  0  0  0  0  0
   -0.8830   -7.6860  -26.5670 C   0  0  0  0  0  3  0  0  0  0  0  0
    0.0280   -6.9290  -27.3100 C   0  0  0  0  0  3  0  0  0  0  0  0
  1  7  1  0  0  0  0
  2  1  2  0  0  0  0
  2  3  1  0  0  0  0
  3  5  2  0  0  0  0
  4  3  1  0  0  0  0
  4  9  1  0  0  0  0
  5  6  1  0  0  0  0
  7  8  1  0  0  0  0
  7  6  2  0  0  0  0
 10  4  1  0  0  0  0
 11 10  2  0  0  0  0
 12 11  1  0  0  0  0
 13 12  2  0  0  0  0
 13 14  1  0  0  0  0
 14 15  2  0  0  0  0
 15 10  1  0  0  0  0
 16 13  1  0  0  0  0
 17 16  2  0  0  0  0
 18 17  1  0  0  0  0
 19 18  2  0  0  0  0
 19 20  1  0  0  0  0
 20 21  1  0  0  0  0
 20 16  1  0  0  0  0
 22  1  1  0  0  0  0
 23 24  1  0  0  0  0
 24 25  1  0  0  0  0
 25 26  2  0  0  0  0
 27 26  1  0  0  0  0
 27 22  1  0  0  0  0
 28 27  2  0  0  0  0
 29 24  2  0  0  0  0
 29 28  1  0  0  0  0
M  END
>  <minimizedAffinity>
-8.15934658

$$$$
