
 OpenBabel10152419313D

 29 32  0  0  0  0  0  0  0  0999 V2000
    2.5200   -8.2080  -26.6670 C   0  0  0  0  0  0  0  0  0  0  0  0
    2.1250   -9.2150  -25.8580 N   0  0  0  0  0  0  0  0  0  0  0  0
    2.9310  -10.2820  -25.7650 C   0  0  0  0  0  0  0  0  0  0  0  0
    2.6670  -11.3090  -24.8660 N   0  0  0  0  0  0  0  0  0  0  0  0
    4.0830  -10.3930  -26.4480 N   0  0  0  0  0  0  0  0  0  0  0  0
    4.4390   -9.3580  -27.2430 C   0  0  0  0  0  3  0  0  0  0  0  0
    3.6980   -8.2110  -27.3810 C   0  0  0  0  0  0  0  0  0  0  0  0
    4.2480   -6.9150  -28.3530 Cl  0  0  0  0  0  0  0  0  0  0  0  0
    3.4490  -11.9460  -24.8230 H   0  0  0  0  0  0  0  0  0  0  0  0
    1.5920  -11.5440  -24.0060 C   0  0  0  0  0  0  0  0  0  0  0  0
    1.5770  -12.7200  -23.2420 C   0  0  0  0  0  3  0  0  0  0  0  0
    0.5730  -12.9590  -22.2940 C   0  0  0  0  0  3  0  0  0  0  0  0
   -0.4520  -12.0280  -22.0940 C   0  0  0  0  0  0  0  0  0  0  0  0
   -0.4570  -10.8660  -22.8730 C   0  0  0  0  0  3  0  0  0  0  0  0
    0.5640  -10.6200  -23.7990 C   0  0  0  0  0  3  0  0  0  0  0  0
   -1.4950  -12.2320  -21.1000 C   0  0  0  0  0  0  0  0  0  0  0  0
   -1.4160  -12.0670  -19.7940 N   0  0  0  0  0  0  0  0  0  0  0  0
   -2.6440  -12.4120  -19.2810 N   0  0  0  0  0  0  0  0  0  0  0  0
   -3.4640  -12.8080  -20.2420 N   0  0  0  0  0  0  0  0  0  0  0  0
   -2.7510  -12.7070  -21.3700 N   0  0  0  0  0  0  0  0  0  0  0  0
   -3.1560  -12.9980  -22.2470 H   0  0  0  0  0  0  0  0  0  0  0  0
    1.7230   -7.0860  -26.6200 O   0  0  0  0  0  0  0  0  0  0  0  0
   -2.8730   -7.4490  -23.6300 F   0  0  0  0  0  0  0  0  0  0  0  0
   -1.7450   -7.3330  -24.3410 C   0  0  0  0  0  0  0  0  0  0  0  0
   -1.6460   -7.9620  -25.5760 C   0  0  0  0  0  3  0  0  0  0  0  0
   -0.4660   -7.8460  -26.3090 C   0  0  0  0  0  3  0  0  0  0  0  0
    0.6120   -7.1040  -25.8070 C   0  0  0  0  0  0  0  0  0  0  0  0
    0.4920   -6.4580  -24.5720 C   0  0  0  0  0  3  0  0  0  0  0  0
   -0.6900   -6.5820  -23.8350 C   0  0  0  0  0  3  0  0  0  0  0  0
  1 22  1  0  0  0  0
  1  2  2  0  0  0  0
  2  3  1  0  0  0  0
  3  4  1  0  0  0  0
  4  9  1  0  0  0  0
  4 10  1  0  0  0  0
  5  3  2  0  0  0  0
  6  5  1  0  0  0  0
  7  6  2  0  0  0  0
  7  1  1  0  0  0  0
  8  7  1  0  0  0  0
 10 15  2  0  0  0  0
 10 11  1  0  0  0  0
 11 12  2  0  0  0  0
 12 13  1  0  0  0  0
 13 16  1  0  0  0  0
 14 13  2  0  0  0  0
 15 14  1  0  0  0  0
 16 17  2  0  0  0  0
 17 18  1  0  0  0  0
 19 18  2  0  0  0  0
 20 16  1  0  0  0  0
 20 19  1  0  0  0  0
 21 20  1  0  0  0  0
 22 27  1  0  0  0  0
 24 29  1  0  0  0  0
 24 23  1  0  0  0  0
 25 24  2  0  0  0  0
 26 27  2  0  0  0  0
 26 25  1  0  0  0  0
 27 28  1  0  0  0  0
 28 29  2  0  0  0  0
M  END
>  <minimizedAffinity>
-9.70079517

$$$$
