
 OpenBabel10152419313D

 29 32  0  0  0  0  0  0  0  0999 V2000
   -0.2900   -4.5730  -26.3170 C   0  0  0  0  0  0  0  0  0  0  0  0
    0.6430   -5.3610  -26.8920 N   0  0  0  0  0  0  0  0  0  0  0  0
    1.3670   -4.8330  -27.8880 C   0  0  0  0  0  0  0  0  0  0  0  0
    2.4300   -5.5280  -28.4550 N   0  0  0  0  0  0  0  0  0  0  0  0
    1.1900   -3.5790  -28.3390 N   0  0  0  0  0  0  0  0  0  0  0  0
    0.2470   -2.8250  -27.7300 C   0  0  0  0  0  3  0  0  0  0  0  0
   -0.5240   -3.2650  -26.6830 C   0  0  0  0  0  0  0  0  0  0  0  0
   -1.6510   -2.2280  -25.9170 Cl  0  0  0  0  0  0  0  0  0  0  0  0
    2.9500   -4.9250  -29.0750 H   0  0  0  0  0  0  0  0  0  0  0  0
    2.9090   -6.8240  -28.2560 C   0  0  0  0  0  0  0  0  0  0  0  0
    2.6180   -7.4780  -27.0510 C   0  0  0  0  0  3  0  0  0  0  0  0
    2.9910   -8.8130  -26.8380 C   0  0  0  0  0  3  0  0  0  0  0  0
    3.6770   -9.5250  -27.8280 C   0  0  0  0  0  0  0  0  0  0  0  0
    3.9940   -8.8680  -29.0220 C   0  0  0  0  0  3  0  0  0  0  0  0
    3.5950   -7.5440  -29.2380 C   0  0  0  0  0  3  0  0  0  0  0  0
    4.0560  -10.9190  -27.6510 C   0  0  0  0  0  0  0  0  0  0  0  0
    4.5580  -11.7440  -28.5490 N   0  0  0  0  0  0  0  0  0  0  0  0
    4.7200  -12.9560  -27.9190 N   0  0  0  0  0  0  0  0  0  0  0  0
    4.3050  -12.8960  -26.6640 N   0  0  0  0  0  0  0  0  0  0  0  0
    3.8830  -11.6370  -26.4970 N   0  0  0  0  0  0  0  0  0  0  0  0
    3.4760  -11.3560  -25.6180 H   0  0  0  0  0  0  0  0  0  0  0  0
   -0.9090   -5.1200  -25.2160 O   0  0  0  0  0  0  0  0  0  0  0  0
   -1.3030  -10.5500  -24.4650 F   0  0  0  0  0  0  0  0  0  0  0  0
   -1.1990   -9.2330  -24.6800 C   0  0  0  0  0  0  0  0  0  0  0  0
   -1.0070   -8.3760  -23.6040 C   0  0  0  0  0  3  0  0  0  0  0  0
   -0.9080   -7.0040  -23.8310 C   0  0  0  0  0  3  0  0  0  0  0  0
   -1.0030   -6.4920  -25.1320 C   0  0  0  0  0  0  0  0  0  0  0  0
   -1.1760   -7.3670  -26.2100 C   0  0  0  0  0  3  0  0  0  0  0  0
   -1.2820   -8.7420  -25.9780 C   0  0  0  0  0  3  0  0  0  0  0  0
  1 22  1  0  0  0  0
  2  1  2  0  0  0  0
  3  2  1  0  0  0  0
  4 10  1  0  0  0  0
  4  3  1  0  0  0  0
  5  3  2  0  0  0  0
  5  6  1  0  0  0  0
  6  7  2  0  0  0  0
  7  1  1  0  0  0  0
  7  8  1  0  0  0  0
  9  4  1  0  0  0  0
 10 11  1  0  0  0  0
 11 12  2  0  0  0  0
 13 16  1  0  0  0  0
 13 12  1  0  0  0  0
 14 13  2  0  0  0  0
 15 14  1  0  0  0  0
 15 10  2  0  0  0  0
 16 20  1  0  0  0  0
 17 18  1  0  0  0  0
 17 16  2  0  0  0  0
 18 19  2  0  0  0  0
 19 20  1  0  0  0  0
 20 21  1  0  0  0  0
 22 27  1  0  0  0  0
 24 23  1  0  0  0  0
 24 25  1  0  0  0  0
 26 25  2  0  0  0  0
 27 26  1  0  0  0  0
 28 29  1  0  0  0  0
 28 27  2  0  0  0  0
 29 24  2  0  0  0  0
M  END
>  <minimizedAffinity>
-8.28460979

$$$$
