
 OpenBabel10152419313D

 29 32  0  0  0  0  0  0  0  0999 V2000
    0.9700   -7.8870  -26.9540 C   0  0  0  0  0  0  0  0  0  0  0  0
    0.8850   -8.7680  -25.9340 N   0  0  0  0  0  0  0  0  0  0  0  0
    2.0210   -9.3510  -25.5280 C   0  0  0  0  0  0  0  0  0  0  0  0
    2.0490  -10.1750  -24.4080 N   0  0  0  0  0  0  0  0  0  0  0  0
    3.2130   -9.1120  -26.0990 N   0  0  0  0  0  0  0  0  0  0  0  0
    3.2500   -8.2200  -27.1160 C   0  0  0  0  0  3  0  0  0  0  0  0
    2.1480   -7.5490  -27.5820 C   0  0  0  0  0  0  0  0  0  0  0  0
    2.2850   -6.3820  -28.8280 Cl  0  0  0  0  0  0  0  0  0  0  0  0
    3.0010  -10.4000  -24.1630 H   0  0  0  0  0  0  0  0  0  0  0  0
    1.0340  -10.6490  -23.5730 C   0  0  0  0  0  0  0  0  0  0  0  0
    1.0590  -11.9920  -23.1700 C   0  0  0  0  0  3  0  0  0  0  0  0
    0.1220  -12.4960  -22.2570 C   0  0  0  0  0  3  0  0  0  0  0  0
   -0.8730  -11.6640  -21.7300 C   0  0  0  0  0  0  0  0  0  0  0  0
   -0.9180  -10.3310  -22.1500 C   0  0  0  0  0  3  0  0  0  0  0  0
    0.0360   -9.8280  -23.0420 C   0  0  0  0  0  3  0  0  0  0  0  0
   -1.8450  -12.1470  -20.7600 C   0  0  0  0  0  0  0  0  0  0  0  0
   -3.1590  -12.1620  -20.8660 N   0  0  0  0  0  0  0  0  0  0  0  0
   -3.6410  -12.6790  -19.6860 N   0  0  0  0  0  0  0  0  0  0  0  0
   -2.6520  -12.9580  -18.8520 N   0  0  0  0  0  0  0  0  0  0  0  0
   -1.5370  -12.6190  -19.5110 N   0  0  0  0  0  0  0  0  0  0  0  0
   -0.6400  -12.7030  -19.0560 H   0  0  0  0  0  0  0  0  0  0  0  0
   -0.2010   -7.2210  -27.2400 O   0  0  0  0  0  0  0  0  0  0  0  0
   -0.7920   -2.2730  -24.9220 F   0  0  0  0  0  0  0  0  0  0  0  0
   -0.6580   -3.4660  -25.5160 C   0  0  0  0  0  0  0  0  0  0  0  0
   -0.6230   -4.6170  -24.7400 C   0  0  0  0  0  3  0  0  0  0  0  0
   -0.4750   -5.8560  -25.3620 C   0  0  0  0  0  3  0  0  0  0  0  0
   -0.3620   -5.9420  -26.7560 C   0  0  0  0  0  0  0  0  0  0  0  0
   -0.4200   -4.7770  -27.5280 C   0  0  0  0  0  3  0  0  0  0  0  0
   -0.5610   -3.5340  -26.9020 C   0  0  0  0  0  3  0  0  0  0  0  0
  1  2  2  0  0  0  0
  2  3  1  0  0  0  0
  3  4  1  0  0  0  0
  4  9  1  0  0  0  0
  4 10  1  0  0  0  0
  5  3  2  0  0  0  0
  6  5  1  0  0  0  0
  7  6  2  0  0  0  0
  7  1  1  0  0  0  0
  8  7  1  0  0  0  0
 10 11  2  0  0  0  0
 10 15  1  0  0  0  0
 11 12  1  0  0  0  0
 12 13  2  0  0  0  0
 13 16  1  0  0  0  0
 14 13  1  0  0  0  0
 15 14  2  0  0  0  0
 16 20  1  0  0  0  0
 17 16  2  0  0  0  0
 17 18  1  0  0  0  0
 18 19  2  0  0  0  0
 20 21  1  0  0  0  0
 20 19  1  0  0  0  0
 22  1  1  0  0  0  0
 22 27  1  0  0  0  0
 24 23  1  0  0  0  0
 24 25  1  0  0  0  0
 26 25  2  0  0  0  0
 27 26  1  0  0  0  0
 28 29  1  0  0  0  0
 28 27  2  0  0  0  0
 29 24  2  0  0  0  0
M  END
>  <minimizedAffinity>
-8.47101021

$$$$
