
 OpenBabel10152419313D

 29 32  0  0  0  0  0  0  0  0999 V2000
    2.5200   -8.2080  -26.6670 C   0  0  0  0  0  0  0  0  0  0  0  0
    2.1250   -9.2150  -25.8580 N   0  0  0  0  0  0  0  0  0  0  0  0
    2.9310  -10.2820  -25.7650 C   0  0  0  0  0  0  0  0  0  0  0  0
    2.6670  -11.3090  -24.8660 N   0  0  0  0  0  0  0  0  0  0  0  0
    4.0830  -10.3930  -26.4480 N   0  0  0  0  0  0  0  0  0  0  0  0
    4.4390   -9.3580  -27.2430 C   0  0  0  0  0  3  0  0  0  0  0  0
    3.6980   -8.2110  -27.3810 C   0  0  0  0  0  0  0  0  0  0  0  0
    4.2480   -6.9150  -28.3530 Cl  0  0  0  0  0  0  0  0  0  0  0  0
    3.4490  -11.9460  -24.8230 H   0  0  0  0  0  0  0  0  0  0  0  0
    1.5920  -11.5440  -24.0060 C   0  0  0  0  0  0  0  0  0  0  0  0
    1.5770  -12.7200  -23.2420 C   0  0  0  0  0  3  0  0  0  0  0  0
    0.5730  -12.9590  -22.2940 C   0  0  0  0  0  3  0  0  0  0  0  0
   -0.4520  -12.0280  -22.0940 C   0  0  0  0  0  0  0  0  0  0  0  0
   -0.4570  -10.8660  -22.8730 C   0  0  0  0  0  3  0  0  0  0  0  0
    0.5640  -10.6200  -23.7990 C   0  0  0  0  0  3  0  0  0  0  0  0
   -1.4950  -12.2320  -21.1000 C   0  0  0  0  0  0  0  0  0  0  0  0
   -1.4160  -12.0670  -19.7940 N   0  0  0  0  0  0  0  0  0  0  0  0
   -2.6440  -12.4120  -19.2810 N   0  0  0  0  0  0  0  0  0  0  0  0
   -3.4640  -12.8080  -20.2420 N   0  0  0  0  0  0  0  0  0  0  0  0
   -2.7510  -12.7070  -21.3700 N   0  0  0  0  0  0  0  0  0  0  0  0
   -3.1560  -12.9980  -22.2470 H   0  0  0  0  0  0  0  0  0  0  0  0
    1.7230   -7.0860  -26.6200 O   0  0  0  0  0  0  0  0  0  0  0  0
   -2.8730   -7.4490  -23.6300 F   0  0  0  0  0  0  0  0  0  0  0  0
   -1.7450   -7.3330  -24.3410 C   0  0  0  0  0  0  0  0  0  0  0  0
   -1.6460   -7.9620  -25.5760 C   0  0  0  0  0  3  0  0  0  0  0  0
   -0.4660   -7.8460  -26.3090 C   0  0  0  0  0  3  0  0  0  0  0  0
    0.6120   -7.1040  -25.8070 C   0  0  0  0  0  0  0  0  0  0  0  0
    0.4920   -6.4580  -24.5720 C   0  0  0  0  0  3  0  0  0  0  0  0
   -0.6900   -6.5820  -23.8350 C   0  0  0  0  0  3  0  0  0  0  0  0
  1 22  1  0  0  0  0
  1  2  2  0  0  0  0
  2  3  1  0  0  0  0
  3  4  1  0  0  0  0
  4  9  1  0  0  0  0
  4 10  1  0  0  0  0
  5  3  2  0  0  0  0
  6  5  1  0  0  0  0
  7  6  2  0  0  0  0
  7  1  1  0  0  0  0
  8  7  1  0  0  0  0
 10 15  2  0  0  0  0
 10 11  1  0  0  0  0
 11 12  2  0  0  0  0
 12 13  1  0  0  0  0
 13 16  1  0  0  0  0
 14 13  2  0  0  0  0
 15 14  1  0  0  0  0
 16 17  2  0  0  0  0
 17 18  1  0  0  0  0
 19 18  2  0  0  0  0
 20 16  1  0  0  0  0
 20 19  1  0  0  0  0
 21 20  1  0  0  0  0
 22 27  1  0  0  0  0
 24 29  1  0  0  0  0
 24 23  1  0  0  0  0
 25 24  2  0  0  0  0
 26 27  2  0  0  0  0
 26 25  1  0  0  0  0
 27 28  1  0  0  0  0
 28 29  2  0  0  0  0
M  END
>  <minimizedAffinity>
-9.70079517

$$$$

 OpenBabel10152419313D

 29 32  0  0  0  0  0  0  0  0999 V2000
    1.3380   -7.0090  -26.2080 C   0  0  0  0  0  0  0  0  0  0  0  0
    0.4590   -7.5750  -25.3550 N   0  0  0  0  0  0  0  0  0  0  0  0
   -0.8380   -7.2870  -25.5250 C   0  0  0  0  0  0  0  0  0  0  0  0
   -1.8230   -7.9190  -24.7730 N   0  0  0  0  0  0  0  0  0  0  0  0
   -1.2860   -6.4570  -26.4830 N   0  0  0  0  0  0  0  0  0  0  0  0
   -0.3690   -5.9150  -27.3170 C   0  0  0  0  0  3  0  0  0  0  0  0
    0.9770   -6.1730  -27.2420 C   0  0  0  0  0  0  0  0  0  0  0  0
    2.0690   -5.5030  -28.3780 Cl  0  0  0  0  0  0  0  0  0  0  0  0
   -2.7370   -7.6960  -25.1370 H   0  0  0  0  0  0  0  0  0  0  0  0
   -1.7500   -8.8200  -23.7090 C   0  0  0  0  0  0  0  0  0  0  0  0
   -2.1930   -8.4120  -22.4420 C   0  0  0  0  0  3  0  0  0  0  0  0
   -2.2320   -9.3050  -21.3620 C   0  0  0  0  0  3  0  0  0  0  0  0
   -1.8170  -10.6310  -21.5230 C   0  0  0  0  0  0  0  0  0  0  0  0
   -1.3480  -11.0360  -22.7770 C   0  0  0  0  0  3  0  0  0  0  0  0
   -1.3360  -10.1470  -23.8580 C   0  0  0  0  0  3  0  0  0  0  0  0
   -1.8690  -11.5920  -20.4300 C   0  0  0  0  0  0  0  0  0  0  0  0
   -2.9340  -12.1500  -19.8890 N   0  0  0  0  0  0  0  0  0  0  0  0
   -2.4800  -12.9590  -18.8740 N   0  0  0  0  0  0  0  0  0  0  0  0
   -1.1630  -12.8890  -18.7670 N   0  0  0  0  0  0  0  0  0  0  0  0
   -0.7820  -12.0340  -19.7240 N   0  0  0  0  0  0  0  0  0  0  0  0
    0.1920  -11.7840  -19.8140 H   0  0  0  0  0  0  0  0  0  0  0  0
    2.6370   -7.4430  -26.0710 O   0  0  0  0  0  0  0  0  0  0  0  0
    3.9740  -12.7730  -26.1270 F   0  0  0  0  0  0  0  0  0  0  0  0
    3.6170  -11.4830  -26.1080 C   0  0  0  0  0  0  0  0  0  0  0  0
    4.4490  -10.5330  -26.6860 C   0  0  0  0  0  3  0  0  0  0  0  0
    4.0760   -9.1900  -26.6570 C   0  0  0  0  0  3  0  0  0  0  0  0
    2.8760   -8.7990  -26.0490 C   0  0  0  0  0  0  0  0  0  0  0  0
    2.0360   -9.7680  -25.4880 C   0  0  0  0  0  3  0  0  0  0  0  0
    2.4150  -11.1140  -25.5130 C   0  0  0  0  0  3  0  0  0  0  0  0
  1 22  1  0  0  0  0
  1  2  2  0  0  0  0
  3  2  1  0  0  0  0
  3  4  1  0  0  0  0
  4 10  1  0  0  0  0
  5  3  2  0  0  0  0
  6  7  2  0  0  0  0
  6  5  1  0  0  0  0
  7  1  1  0  0  0  0
  8  7  1  0  0  0  0
  9  4  1  0  0  0  0
 10 11  1  0  0  0  0
 11 12  2  0  0  0  0
 13 12  1  0  0  0  0
 13 16  1  0  0  0  0
 14 13  2  0  0  0  0
 15 10  2  0  0  0  0
 15 14  1  0  0  0  0
 16 17  2  0  0  0  0
 16 20  1  0  0  0  0
 17 18  1  0  0  0  0
 18 19  2  0  0  0  0
 20 19  1  0  0  0  0
 21 20  1  0  0  0  0
 22 27  1  0  0  0  0
 23 24  1  0  0  0  0
 24 29  1  0  0  0  0
 25 26  1  0  0  0  0
 25 24  2  0  0  0  0
 26 27  2  0  0  0  0
 27 28  1  0  0  0  0
 29 28  2  0  0  0  0
M  END
>  <minimizedAffinity>
-9.23793983

$$$$

 OpenBabel10152419313D

 29 32  0  0  0  0  0  0  0  0999 V2000
   -0.6810  -11.1840  -21.9430 C   0  0  0  0  0  0  0  0  0  0  0  0
   -0.9140  -10.0430  -22.6250 N   0  0  0  0  0  0  0  0  0  0  0  0
   -1.8800   -9.2360  -22.1650 C   0  0  0  0  0  0  0  0  0  0  0  0
   -2.1050   -7.9850  -22.7300 N   0  0  0  0  0  0  0  0  0  0  0  0
   -2.6240   -9.5240  -21.0840 N   0  0  0  0  0  0  0  0  0  0  0  0
   -2.3530  -10.6770  -20.4300 C   0  0  0  0  0  3  0  0  0  0  0  0
   -1.3650  -11.5530  -20.8040 C   0  0  0  0  0  0  0  0  0  0  0  0
   -1.0350  -12.9590  -19.8860 Cl  0  0  0  0  0  0  0  0  0  0  0  0
   -2.7580   -7.4600  -22.1670 H   0  0  0  0  0  0  0  0  0  0  0  0
   -1.5480   -7.3490  -23.8410 C   0  0  0  0  0  0  0  0  0  0  0  0
   -0.7500   -6.2130  -23.6440 C   0  0  0  0  0  3  0  0  0  0  0  0
   -0.0880   -5.5940  -24.7130 C   0  0  0  0  0  3  0  0  0  0  0  0
   -0.2180   -6.0930  -26.0140 C   0  0  0  0  0  0  0  0  0  0  0  0
   -1.0350   -7.2100  -26.2200 C   0  0  0  0  0  3  0  0  0  0  0  0
   -1.6720   -7.8390  -25.1440 C   0  0  0  0  0  3  0  0  0  0  0  0
    0.4760   -5.4910  -27.1430 C   0  0  0  0  0  0  0  0  0  0  0  0
    1.3290   -6.0620  -27.9700 N   0  0  0  0  0  0  0  0  0  0  0  0
    1.7380   -5.0850  -28.8470 N   0  0  0  0  0  0  0  0  0  0  0  0
    1.1710   -3.9240  -28.5600 N   0  0  0  0  0  0  0  0  0  0  0  0
    0.3960   -4.1700  -27.4960 N   0  0  0  0  0  0  0  0  0  0  0  0
   -0.1140   -3.4160  -27.0620 H   0  0  0  0  0  0  0  0  0  0  0  0
    0.4060  -11.9060  -22.3790 O   0  0  0  0  0  0  0  0  0  0  0  0
    1.9850  -11.6710  -27.6380 F   0  0  0  0  0  0  0  0  0  0  0  0
    1.5690  -11.7350  -26.3680 C   0  0  0  0  0  0  0  0  0  0  0  0
    2.3300  -11.1430  -25.3670 C   0  0  0  0  0  3  0  0  0  0  0  0
    1.8970  -11.2200  -24.0440 C   0  0  0  0  0  3  0  0  0  0  0  0
    0.7080  -11.8870  -23.7230 C   0  0  0  0  0  0  0  0  0  0  0  0
   -0.0610  -12.4610  -24.7420 C   0  0  0  0  0  3  0  0  0  0  0  0
    0.3790  -12.3890  -26.0680 C   0  0  0  0  0  3  0  0  0  0  0  0
  1  7  1  0  0  0  0
  2  3  1  0  0  0  0
  2  1  2  0  0  0  0
  3  5  2  0  0  0  0
  4  9  1  0  0  0  0
  4  3  1  0  0  0  0
  5  6  1  0  0  0  0
  7  6  2  0  0  0  0
  7  8  1  0  0  0  0
 10 11  1  0  0  0  0
 10  4  1  0  0  0  0
 12 11  2  0  0  0  0
 13 12  1  0  0  0  0
 14 13  2  0  0  0  0
 14 15  1  0  0  0  0
 15 10  2  0  0  0  0
 16 13  1  0  0  0  0
 17 16  2  0  0  0  0
 18 19  2  0  0  0  0
 18 17  1  0  0  0  0
 19 20  1  0  0  0  0
 20 16  1  0  0  0  0
 20 21  1  0  0  0  0
 22  1  1  0  0  0  0
 23 24  1  0  0  0  0
 24 29  2  0  0  0  0
 24 25  1  0  0  0  0
 25 26  2  0  0  0  0
 26 27  1  0  0  0  0
 27 22  1  0  0  0  0
 28 27  2  0  0  0  0
 29 28  1  0  0  0  0
M  END
>  <minimizedAffinity>
-8.91946316

$$$$

 OpenBabel10152419313D

 29 32  0  0  0  0  0  0  0  0999 V2000
    2.9410   -7.5850  -27.6560 C   0  0  0  0  0  0  0  0  0  0  0  0
    1.9060   -7.2130  -26.8740 N   0  0  0  0  0  0  0  0  0  0  0  0
    1.0720   -6.2830  -27.3570 C   0  0  0  0  0  0  0  0  0  0  0  0
   -0.0880   -5.9290  -26.6760 N   0  0  0  0  0  0  0  0  0  0  0  0
    1.2350   -5.7040  -28.5590 N   0  0  0  0  0  0  0  0  0  0  0  0
    2.2850   -6.1100  -29.3090 C   0  0  0  0  0  3  0  0  0  0  0  0
    3.1760   -7.0770  -28.9150 C   0  0  0  0  0  0  0  0  0  0  0  0
    4.4400   -7.5880  -29.9500 Cl  0  0  0  0  0  0  0  0  0  0  0  0
   -0.6650   -5.3350  -27.2520 H   0  0  0  0  0  0  0  0  0  0  0  0
   -0.5870   -6.3040  -25.4260 C   0  0  0  0  0  0  0  0  0  0  0  0
   -1.4080   -7.4380  -25.3360 C   0  0  0  0  0  3  0  0  0  0  0  0
   -1.8560   -7.9150  -24.0960 C   0  0  0  0  0  3  0  0  0  0  0  0
   -1.5010   -7.2580  -22.9130 C   0  0  0  0  0  0  0  0  0  0  0  0
   -0.7060   -6.1110  -23.0000 C   0  0  0  0  0  3  0  0  0  0  0  0
   -0.2400   -5.6550  -24.2380 C   0  0  0  0  0  3  0  0  0  0  0  0
   -1.9280   -7.7410  -21.6070 C   0  0  0  0  0  0  0  0  0  0  0  0
   -2.8500   -7.2320  -20.8150 N   0  0  0  0  0  0  0  0  0  0  0  0
   -2.8700   -8.0140  -19.6840 N   0  0  0  0  0  0  0  0  0  0  0  0
   -1.9640   -8.9760  -19.7580 N   0  0  0  0  0  0  0  0  0  0  0  0
   -1.3700   -8.8020  -20.9450 N   0  0  0  0  0  0  0  0  0  0  0  0
   -0.6040   -9.4000  -21.2140 H   0  0  0  0  0  0  0  0  0  0  0  0
    3.6860   -8.6350  -27.1680 O   0  0  0  0  0  0  0  0  0  0  0  0
    1.5340  -12.4130  -23.8060 F   0  0  0  0  0  0  0  0  0  0  0  0
    2.0350  -11.4710  -24.6150 C   0  0  0  0  0  0  0  0  0  0  0  0
    2.8390  -11.8430  -25.6840 C   0  0  0  0  0  3  0  0  0  0  0  0
    3.3650  -10.8580  -26.5190 C   0  0  0  0  0  3  0  0  0  0  0  0
    3.0890   -9.5050  -26.2820 C   0  0  0  0  0  0  0  0  0  0  0  0
    2.2600   -9.1440  -25.2140 C   0  0  0  0  0  3  0  0  0  0  0  0
    1.7390  -10.1330  -24.3750 C   0  0  0  0  0  3  0  0  0  0  0  0
  1 22  1  0  0  0  0
  1  2  2  0  0  0  0
  3  2  1  0  0  0  0
  3  4  1  0  0  0  0
  4 10  1  0  0  0  0
  5  3  2  0  0  0  0
  6  7  2  0  0  0  0
  6  5  1  0  0  0  0
  7  1  1  0  0  0  0
  8  7  1  0  0  0  0
  9  4  1  0  0  0  0
 10 11  2  0  0  0  0
 10 15  1  0  0  0  0
 11 12  1  0  0  0  0
 12 13  2  0  0  0  0
 13 16  1  0  0  0  0
 14 13  1  0  0  0  0
 15 14  2  0  0  0  0
 16 20  1  0  0  0  0
 16 17  2  0  0  0  0
 17 18  1  0  0  0  0
 19 18  2  0  0  0  0
 20 19  1  0  0  0  0
 21 20  1  0  0  0  0
 22 27  1  0  0  0  0
 24 29  1  0  0  0  0
 24 23  1  0  0  0  0
 25 24  2  0  0  0  0
 26 27  2  0  0  0  0
 26 25  1  0  0  0  0
 27 28  1  0  0  0  0
 28 29  2  0  0  0  0
M  END
>  <minimizedAffinity>
-8.62229347

$$$$

 OpenBabel10152419313D

 29 32  0  0  0  0  0  0  0  0999 V2000
    0.9700   -7.8870  -26.9540 C   0  0  0  0  0  0  0  0  0  0  0  0
    0.8850   -8.7680  -25.9340 N   0  0  0  0  0  0  0  0  0  0  0  0
    2.0210   -9.3510  -25.5280 C   0  0  0  0  0  0  0  0  0  0  0  0
    2.0490  -10.1750  -24.4080 N   0  0  0  0  0  0  0  0  0  0  0  0
    3.2130   -9.1120  -26.0990 N   0  0  0  0  0  0  0  0  0  0  0  0
    3.2500   -8.2200  -27.1160 C   0  0  0  0  0  3  0  0  0  0  0  0
    2.1480   -7.5490  -27.5820 C   0  0  0  0  0  0  0  0  0  0  0  0
    2.2850   -6.3820  -28.8280 Cl  0  0  0  0  0  0  0  0  0  0  0  0
    3.0010  -10.4000  -24.1630 H   0  0  0  0  0  0  0  0  0  0  0  0
    1.0340  -10.6490  -23.5730 C   0  0  0  0  0  0  0  0  0  0  0  0
    1.0590  -11.9920  -23.1700 C   0  0  0  0  0  3  0  0  0  0  0  0
    0.1220  -12.4960  -22.2570 C   0  0  0  0  0  3  0  0  0  0  0  0
   -0.8730  -11.6640  -21.7300 C   0  0  0  0  0  0  0  0  0  0  0  0
   -0.9180  -10.3310  -22.1500 C   0  0  0  0  0  3  0  0  0  0  0  0
    0.0360   -9.8280  -23.0420 C   0  0  0  0  0  3  0  0  0  0  0  0
   -1.8450  -12.1470  -20.7600 C   0  0  0  0  0  0  0  0  0  0  0  0
   -3.1590  -12.1620  -20.8660 N   0  0  0  0  0  0  0  0  0  0  0  0
   -3.6410  -12.6790  -19.6860 N   0  0  0  0  0  0  0  0  0  0  0  0
   -2.6520  -12.9580  -18.8520 N   0  0  0  0  0  0  0  0  0  0  0  0
   -1.5370  -12.6190  -19.5110 N   0  0  0  0  0  0  0  0  0  0  0  0
   -0.6400  -12.7030  -19.0560 H   0  0  0  0  0  0  0  0  0  0  0  0
   -0.2010   -7.2210  -27.2400 O   0  0  0  0  0  0  0  0  0  0  0  0
   -0.7920   -2.2730  -24.9220 F   0  0  0  0  0  0  0  0  0  0  0  0
   -0.6580   -3.4660  -25.5160 C   0  0  0  0  0  0  0  0  0  0  0  0
   -0.6230   -4.6170  -24.7400 C   0  0  0  0  0  3  0  0  0  0  0  0
   -0.4750   -5.8560  -25.3620 C   0  0  0  0  0  3  0  0  0  0  0  0
   -0.3620   -5.9420  -26.7560 C   0  0  0  0  0  0  0  0  0  0  0  0
   -0.4200   -4.7770  -27.5280 C   0  0  0  0  0  3  0  0  0  0  0  0
   -0.5610   -3.5340  -26.9020 C   0  0  0  0  0  3  0  0  0  0  0  0
  1  2  2  0  0  0  0
  2  3  1  0  0  0  0
  3  4  1  0  0  0  0
  4  9  1  0  0  0  0
  4 10  1  0  0  0  0
  5  3  2  0  0  0  0
  6  5  1  0  0  0  0
  7  6  2  0  0  0  0
  7  1  1  0  0  0  0
  8  7  1  0  0  0  0
 10 11  2  0  0  0  0
 10 15  1  0  0  0  0
 11 12  1  0  0  0  0
 12 13  2  0  0  0  0
 13 16  1  0  0  0  0
 14 13  1  0  0  0  0
 15 14  2  0  0  0  0
 16 20  1  0  0  0  0
 17 16  2  0  0  0  0
 17 18  1  0  0  0  0
 18 19  2  0  0  0  0
 20 21  1  0  0  0  0
 20 19  1  0  0  0  0
 22  1  1  0  0  0  0
 22 27  1  0  0  0  0
 24 23  1  0  0  0  0
 24 25  1  0  0  0  0
 26 25  2  0  0  0  0
 27 26  1  0  0  0  0
 28 29  1  0  0  0  0
 28 27  2  0  0  0  0
 29 24  2  0  0  0  0
M  END
>  <minimizedAffinity>
-8.47101021

$$$$

 OpenBabel10152419313D

 29 32  0  0  0  0  0  0  0  0999 V2000
    2.9300  -10.1390  -26.7770 C   0  0  0  0  0  0  0  0  0  0  0  0
    1.9700  -10.3350  -25.8480 N   0  0  0  0  0  0  0  0  0  0  0  0
    1.4900  -11.5780  -25.7110 C   0  0  0  0  0  0  0  0  0  0  0  0
    0.5900  -11.8960  -24.6990 N   0  0  0  0  0  0  0  0  0  0  0  0
    1.9050  -12.6120  -26.4620 N   0  0  0  0  0  0  0  0  0  0  0  0
    2.8700  -12.3690  -27.3780 C   0  0  0  0  0  3  0  0  0  0  0  0
    3.4470  -11.1390  -27.5720 C   0  0  0  0  0  0  0  0  0  0  0  0
    4.7130  -10.9250  -28.7030 Cl  0  0  0  0  0  0  0  0  0  0  0  0
    0.4570  -12.8960  -24.6520 H   0  0  0  0  0  0  0  0  0  0  0  0
   -0.0580  -11.1090  -23.7440 C   0  0  0  0  0  0  0  0  0  0  0  0
   -0.3600   -9.7760  -24.0560 C   0  0  0  0  0  3  0  0  0  0  0  0
   -1.0940   -8.9710  -23.1740 C   0  0  0  0  0  3  0  0  0  0  0  0
   -1.5360   -9.4810  -21.9480 C   0  0  0  0  0  0  0  0  0  0  0  0
   -1.2130  -10.8020  -21.6210 C   0  0  0  0  0  3  0  0  0  0  0  0
   -0.5030  -11.6080  -22.5170 C   0  0  0  0  0  3  0  0  0  0  0  0
   -2.3230   -8.6810  -21.0200 C   0  0  0  0  0  0  0  0  0  0  0  0
   -2.0420   -8.3800  -19.7680 N   0  0  0  0  0  0  0  0  0  0  0  0
   -3.0980   -7.6340  -19.2990 N   0  0  0  0  0  0  0  0  0  0  0  0
   -4.0290   -7.4930  -20.2290 N   0  0  0  0  0  0  0  0  0  0  0  0
   -3.5560   -8.1510  -21.2950 N   0  0  0  0  0  0  0  0  0  0  0  0
   -4.1170   -8.2200  -22.1300 H   0  0  0  0  0  0  0  0  0  0  0  0
    3.4800   -8.8770  -26.7820 O   0  0  0  0  0  0  0  0  0  0  0  0
    0.3330   -4.5790  -28.1340 F   0  0  0  0  0  0  0  0  0  0  0  0
    1.0910   -5.6210  -27.7730 C   0  0  0  0  0  0  0  0  0  0  0  0
    2.1030   -6.0580  -28.6180 C   0  0  0  0  0  3  0  0  0  0  0  0
    2.8840   -7.1500  -28.2410 C   0  0  0  0  0  3  0  0  0  0  0  0
    2.6520   -7.8030  -27.0240 C   0  0  0  0  0  0  0  0  0  0  0  0
    1.6430   -7.3410  -26.1710 C   0  0  0  0  0  3  0  0  0  0  0  0
    0.8560   -6.2500  -26.5540 C   0  0  0  0  0  3  0  0  0  0  0  0
  1  2  2  0  0  0  0
  2  3  1  0  0  0  0
  3  4  1  0  0  0  0
  4  9  1  0  0  0  0
  4 10  1  0  0  0  0
  5  3  2  0  0  0  0
  6  5  1  0  0  0  0
  7  6  2  0  0  0  0
  7  1  1  0  0  0  0
  8  7  1  0  0  0  0
 10 15  1  0  0  0  0
 11 10  2  0  0  0  0
 11 12  1  0  0  0  0
 12 13  2  0  0  0  0
 13 14  1  0  0  0  0
 13 16  1  0  0  0  0
 15 14  2  0  0  0  0
 16 17  2  0  0  0  0
 17 18  1  0  0  0  0
 19 18  2  0  0  0  0
 20 16  1  0  0  0  0
 20 19  1  0  0  0  0
 21 20  1  0  0  0  0
 22  1  1  0  0  0  0
 23 24  1  0  0  0  0
 24 29  1  0  0  0  0
 25 26  1  0  0  0  0
 25 24  2  0  0  0  0
 26 27  2  0  0  0  0
 27 22  1  0  0  0  0
 27 28  1  0  0  0  0
 29 28  2  0  0  0  0
M  END
>  <minimizedAffinity>
-8.39743614

$$$$

 OpenBabel10152419313D

 29 32  0  0  0  0  0  0  0  0999 V2000
   -0.2900   -4.5730  -26.3170 C   0  0  0  0  0  0  0  0  0  0  0  0
    0.6430   -5.3610  -26.8920 N   0  0  0  0  0  0  0  0  0  0  0  0
    1.3670   -4.8330  -27.8880 C   0  0  0  0  0  0  0  0  0  0  0  0
    2.4300   -5.5280  -28.4550 N   0  0  0  0  0  0  0  0  0  0  0  0
    1.1900   -3.5790  -28.3390 N   0  0  0  0  0  0  0  0  0  0  0  0
    0.2470   -2.8250  -27.7300 C   0  0  0  0  0  3  0  0  0  0  0  0
   -0.5240   -3.2650  -26.6830 C   0  0  0  0  0  0  0  0  0  0  0  0
   -1.6510   -2.2280  -25.9170 Cl  0  0  0  0  0  0  0  0  0  0  0  0
    2.9500   -4.9250  -29.0750 H   0  0  0  0  0  0  0  0  0  0  0  0
    2.9090   -6.8240  -28.2560 C   0  0  0  0  0  0  0  0  0  0  0  0
    2.6180   -7.4780  -27.0510 C   0  0  0  0  0  3  0  0  0  0  0  0
    2.9910   -8.8130  -26.8380 C   0  0  0  0  0  3  0  0  0  0  0  0
    3.6770   -9.5250  -27.8280 C   0  0  0  0  0  0  0  0  0  0  0  0
    3.9940   -8.8680  -29.0220 C   0  0  0  0  0  3  0  0  0  0  0  0
    3.5950   -7.5440  -29.2380 C   0  0  0  0  0  3  0  0  0  0  0  0
    4.0560  -10.9190  -27.6510 C   0  0  0  0  0  0  0  0  0  0  0  0
    4.5580  -11.7440  -28.5490 N   0  0  0  0  0  0  0  0  0  0  0  0
    4.7200  -12.9560  -27.9190 N   0  0  0  0  0  0  0  0  0  0  0  0
    4.3050  -12.8960  -26.6640 N   0  0  0  0  0  0  0  0  0  0  0  0
    3.8830  -11.6370  -26.4970 N   0  0  0  0  0  0  0  0  0  0  0  0
    3.4760  -11.3560  -25.6180 H   0  0  0  0  0  0  0  0  0  0  0  0
   -0.9090   -5.1200  -25.2160 O   0  0  0  0  0  0  0  0  0  0  0  0
   -1.3030  -10.5500  -24.4650 F   0  0  0  0  0  0  0  0  0  0  0  0
   -1.1990   -9.2330  -24.6800 C   0  0  0  0  0  0  0  0  0  0  0  0
   -1.0070   -8.3760  -23.6040 C   0  0  0  0  0  3  0  0  0  0  0  0
   -0.9080   -7.0040  -23.8310 C   0  0  0  0  0  3  0  0  0  0  0  0
   -1.0030   -6.4920  -25.1320 C   0  0  0  0  0  0  0  0  0  0  0  0
   -1.1760   -7.3670  -26.2100 C   0  0  0  0  0  3  0  0  0  0  0  0
   -1.2820   -8.7420  -25.9780 C   0  0  0  0  0  3  0  0  0  0  0  0
  1 22  1  0  0  0  0
  2  1  2  0  0  0  0
  3  2  1  0  0  0  0
  4 10  1  0  0  0  0
  4  3  1  0  0  0  0
  5  3  2  0  0  0  0
  5  6  1  0  0  0  0
  6  7  2  0  0  0  0
  7  1  1  0  0  0  0
  7  8  1  0  0  0  0
  9  4  1  0  0  0  0
 10 11  1  0  0  0  0
 11 12  2  0  0  0  0
 13 16  1  0  0  0  0
 13 12  1  0  0  0  0
 14 13  2  0  0  0  0
 15 14  1  0  0  0  0
 15 10  2  0  0  0  0
 16 20  1  0  0  0  0
 17 18  1  0  0  0  0
 17 16  2  0  0  0  0
 18 19  2  0  0  0  0
 19 20  1  0  0  0  0
 20 21  1  0  0  0  0
 22 27  1  0  0  0  0
 24 23  1  0  0  0  0
 24 25  1  0  0  0  0
 26 25  2  0  0  0  0
 27 26  1  0  0  0  0
 28 29  1  0  0  0  0
 28 27  2  0  0  0  0
 29 24  2  0  0  0  0
M  END
>  <minimizedAffinity>
-8.28460979

$$$$

 OpenBabel10152419313D

 29 32  0  0  0  0  0  0  0  0999 V2000
   -1.6450   -8.7800  -23.5490 C   0  0  0  0  0  0  0  0  0  0  0  0
   -0.6220   -9.5320  -24.0080 N   0  0  0  0  0  0  0  0  0  0  0  0
   -0.1610  -10.5000  -23.2040 C   0  0  0  0  0  0  0  0  0  0  0  0
    0.8050  -11.4010  -23.6400 N   0  0  0  0  0  0  0  0  0  0  0  0
   -0.6540  -10.7320  -21.9760 N   0  0  0  0  0  0  0  0  0  0  0  0
   -1.6800   -9.9550  -21.5600 C   0  0  0  0  0  3  0  0  0  0  0  0
   -2.2420   -8.9600  -22.3210 C   0  0  0  0  0  0  0  0  0  0  0  0
   -3.5860   -8.0650  -21.7520 Cl  0  0  0  0  0  0  0  0  0  0  0  0
    0.9200  -12.1440  -22.9670 H   0  0  0  0  0  0  0  0  0  0  0  0
    1.5410  -11.4790  -24.8250 C   0  0  0  0  0  0  0  0  0  0  0  0
    1.3310  -12.5670  -25.6840 C   0  0  0  0  0  3  0  0  0  0  0  0
    1.9700  -12.6450  -26.9300 C   0  0  0  0  0  3  0  0  0  0  0  0
    2.8480  -11.6370  -27.3410 C   0  0  0  0  0  0  0  0  0  0  0  0
    3.0830  -10.5630  -26.4760 C   0  0  0  0  0  3  0  0  0  0  0  0
    2.4210  -10.4770  -25.2450 C   0  0  0  0  0  3  0  0  0  0  0  0
    3.5080  -11.6730  -28.6380 C   0  0  0  0  0  0  0  0  0  0  0  0
    4.2300  -10.7280  -29.2080 N   0  0  0  0  0  0  0  0  0  0  0  0
    4.6120  -11.2150  -30.4360 N   0  0  0  0  0  0  0  0  0  0  0  0
    4.1200  -12.4270  -30.6390 N   0  0  0  0  0  0  0  0  0  0  0  0
    3.4260  -12.7090  -29.5300 N   0  0  0  0  0  0  0  0  0  0  0  0
    2.9170  -13.5780  -29.4640 H   0  0  0  0  0  0  0  0  0  0  0  0
   -2.1650   -7.8930  -24.4650 O   0  0  0  0  0  0  0  0  0  0  0  0
    1.3800   -5.0070  -27.5160 F   0  0  0  0  0  0  0  0  0  0  0  0
    0.5070   -5.7270  -26.8000 C   0  0  0  0  0  0  0  0  0  0  0  0
    0.0890   -5.2600  -25.5610 C   0  0  0  0  0  3  0  0  0  0  0  0
   -0.8150   -6.0170  -24.8150 C   0  0  0  0  0  3  0  0  0  0  0  0
   -1.2960   -7.2370  -25.3080 C   0  0  0  0  0  0  0  0  0  0  0  0
   -0.8830   -7.6860  -26.5670 C   0  0  0  0  0  3  0  0  0  0  0  0
    0.0280   -6.9290  -27.3100 C   0  0  0  0  0  3  0  0  0  0  0  0
  1  7  1  0  0  0  0
  2  1  2  0  0  0  0
  2  3  1  0  0  0  0
  3  5  2  0  0  0  0
  4  3  1  0  0  0  0
  4  9  1  0  0  0  0
  5  6  1  0  0  0  0
  7  8  1  0  0  0  0
  7  6  2  0  0  0  0
 10  4  1  0  0  0  0
 11 10  2  0  0  0  0
 12 11  1  0  0  0  0
 13 12  2  0  0  0  0
 13 14  1  0  0  0  0
 14 15  2  0  0  0  0
 15 10  1  0  0  0  0
 16 13  1  0  0  0  0
 17 16  2  0  0  0  0
 18 17  1  0  0  0  0
 19 18  2  0  0  0  0
 19 20  1  0  0  0  0
 20 21  1  0  0  0  0
 20 16  1  0  0  0  0
 22  1  1  0  0  0  0
 23 24  1  0  0  0  0
 24 25  1  0  0  0  0
 25 26  2  0  0  0  0
 27 26  1  0  0  0  0
 27 22  1  0  0  0  0
 28 27  2  0  0  0  0
 29 24  2  0  0  0  0
 29 28  1  0  0  0  0
M  END
>  <minimizedAffinity>
-8.15934658

$$$$

 OpenBabel10152419313D

 29 32  0  0  0  0  0  0  0  0999 V2000
    0.1200   -6.1440  -26.4120 C   0  0  0  0  0  0  0  0  0  0  0  0
   -0.3410   -6.5700  -25.2170 N   0  0  0  0  0  0  0  0  0  0  0  0
   -0.7930   -5.6420  -24.3640 C   0  0  0  0  0  0  0  0  0  0  0  0
   -1.3980   -5.9970  -23.1630 N   0  0  0  0  0  0  0  0  0  0  0  0
   -0.7860   -4.3260  -24.6400 N   0  0  0  0  0  0  0  0  0  0  0  0
   -0.3180   -3.9460  -25.8500 C   0  0  0  0  0  3  0  0  0  0  0  0
    0.1380   -4.8230  -26.8030 C   0  0  0  0  0  0  0  0  0  0  0  0
    0.6510   -4.2710  -28.3400 Cl  0  0  0  0  0  0  0  0  0  0  0  0
   -1.8090   -5.1870  -22.7260 H   0  0  0  0  0  0  0  0  0  0  0  0
   -1.5840   -7.2350  -22.5430 C   0  0  0  0  0  0  0  0  0  0  0  0
   -1.2960   -8.4040  -23.2610 C   0  0  0  0  0  3  0  0  0  0  0  0
   -1.3720   -9.6670  -22.6560 C   0  0  0  0  0  3  0  0  0  0  0  0
   -1.7500   -9.7900  -21.3150 C   0  0  0  0  0  0  0  0  0  0  0  0
   -2.0660   -8.6280  -20.6030 C   0  0  0  0  0  3  0  0  0  0  0  0
   -1.9620   -7.3690  -21.2040 C   0  0  0  0  0  3  0  0  0  0  0  0
   -1.8140  -11.0830  -20.6490 C   0  0  0  0  0  0  0  0  0  0  0  0
   -2.8630  -11.8670  -20.4970 N   0  0  0  0  0  0  0  0  0  0  0  0
   -2.4350  -12.9580  -19.7760 N   0  0  0  0  0  0  0  0  0  0  0  0
   -1.1540  -12.8450  -19.4630 N   0  0  0  0  0  0  0  0  0  0  0  0
   -0.7690  -11.6780  -19.9940 N   0  0  0  0  0  0  0  0  0  0  0  0
    0.1740  -11.3490  -19.8490 H   0  0  0  0  0  0  0  0  0  0  0  0
    0.4460   -7.1470  -27.2960 O   0  0  0  0  0  0  0  0  0  0  0  0
    4.6170  -10.5410  -26.1600 F   0  0  0  0  0  0  0  0  0  0  0  0
    3.6230   -9.6880  -26.4370 C   0  0  0  0  0  0  0  0  0  0  0  0
    2.3100  -10.0600  -26.1770 C   0  0  0  0  0  3  0  0  0  0  0  0
    1.2770   -9.1720  -26.4740 C   0  0  0  0  0  3  0  0  0  0  0  0
    1.5570   -7.9180  -27.0330 C   0  0  0  0  0  0  0  0  0  0  0  0
    2.8850   -7.5470  -27.2710 C   0  0  0  0  0  3  0  0  0  0  0  0
    3.9190   -8.4420  -26.9780 C   0  0  0  0  0  3  0  0  0  0  0  0
  1  2  2  0  0  0  0
  2  3  1  0  0  0  0
  3  4  1  0  0  0  0
  4  9  1  0  0  0  0
  4 10  1  0  0  0  0
  5  3  2  0  0  0  0
  6  5  1  0  0  0  0
  7  1  1  0  0  0  0
  7  6  2  0  0  0  0
  8  7  1  0  0  0  0
 10 15  1  0  0  0  0
 11 12  1  0  0  0  0
 11 10  2  0  0  0  0
 12 13  2  0  0  0  0
 13 16  1  0  0  0  0
 13 14  1  0  0  0  0
 15 14  2  0  0  0  0
 16 17  2  0  0  0  0
 16 20  1  0  0  0  0
 17 18  1  0  0  0  0
 18 19  2  0  0  0  0
 20 21  1  0  0  0  0
 20 19  1  0  0  0  0
 22 27  1  0  0  0  0
 22  1  1  0  0  0  0
 24 25  1  0  0  0  0
 24 23  1  0  0  0  0
 26 25  2  0  0  0  0
 27 26  1  0  0  0  0
 28 27  2  0  0  0  0
 28 29  1  0  0  0  0
 29 24  2  0  0  0  0
M  END
>  <minimizedAffinity>
-8.03585148

$$$$
