
 OpenBabel10152419313D

 29 32  0  0  0  0  0  0  0  0999 V2000
    0.1200   -6.1440  -26.4120 C   0  0  0  0  0  0  0  0  0  0  0  0
   -0.3410   -6.5700  -25.2170 N   0  0  0  0  0  0  0  0  0  0  0  0
   -0.7930   -5.6420  -24.3640 C   0  0  0  0  0  0  0  0  0  0  0  0
   -1.3980   -5.9970  -23.1630 N   0  0  0  0  0  0  0  0  0  0  0  0
   -0.7860   -4.3260  -24.6400 N   0  0  0  0  0  0  0  0  0  0  0  0
   -0.3180   -3.9460  -25.8500 C   0  0  0  0  0  3  0  0  0  0  0  0
    0.1380   -4.8230  -26.8030 C   0  0  0  0  0  0  0  0  0  0  0  0
    0.6510   -4.2710  -28.3400 Cl  0  0  0  0  0  0  0  0  0  0  0  0
   -1.8090   -5.1870  -22.7260 H   0  0  0  0  0  0  0  0  0  0  0  0
   -1.5840   -7.2350  -22.5430 C   0  0  0  0  0  0  0  0  0  0  0  0
   -1.2960   -8.4040  -23.2610 C   0  0  0  0  0  3  0  0  0  0  0  0
   -1.3720   -9.6670  -22.6560 C   0  0  0  0  0  3  0  0  0  0  0  0
   -1.7500   -9.7900  -21.3150 C   0  0  0  0  0  0  0  0  0  0  0  0
   -2.0660   -8.6280  -20.6030 C   0  0  0  0  0  3  0  0  0  0  0  0
   -1.9620   -7.3690  -21.2040 C   0  0  0  0  0  3  0  0  0  0  0  0
   -1.8140  -11.0830  -20.6490 C   0  0  0  0  0  0  0  0  0  0  0  0
   -2.8630  -11.8670  -20.4970 N   0  0  0  0  0  0  0  0  0  0  0  0
   -2.4350  -12.9580  -19.7760 N   0  0  0  0  0  0  0  0  0  0  0  0
   -1.1540  -12.8450  -19.4630 N   0  0  0  0  0  0  0  0  0  0  0  0
   -0.7690  -11.6780  -19.9940 N   0  0  0  0  0  0  0  0  0  0  0  0
    0.1740  -11.3490  -19.8490 H   0  0  0  0  0  0  0  0  0  0  0  0
    0.4460   -7.1470  -27.2960 O   0  0  0  0  0  0  0  0  0  0  0  0
    4.6170  -10.5410  -26.1600 F   0  0  0  0  0  0  0  0  0  0  0  0
    3.6230   -9.6880  -26.4370 C   0  0  0  0  0  0  0  0  0  0  0  0
    2.3100  -10.0600  -26.1770 C   0  0  0  0  0  3  0  0  0  0  0  0
    1.2770   -9.1720  -26.4740 C   0  0  0  0  0  3  0  0  0  0  0  0
    1.5570   -7.9180  -27.0330 C   0  0  0  0  0  0  0  0  0  0  0  0
    2.8850   -7.5470  -27.2710 C   0  0  0  0  0  3  0  0  0  0  0  0
    3.9190   -8.4420  -26.9780 C   0  0  0  0  0  3  0  0  0  0  0  0
  1  2  2  0  0  0  0
  2  3  1  0  0  0  0
  3  4  1  0  0  0  0
  4  9  1  0  0  0  0
  4 10  1  0  0  0  0
  5  3  2  0  0  0  0
  6  5  1  0  0  0  0
  7  1  1  0  0  0  0
  7  6  2  0  0  0  0
  8  7  1  0  0  0  0
 10 15  1  0  0  0  0
 11 12  1  0  0  0  0
 11 10  2  0  0  0  0
 12 13  2  0  0  0  0
 13 16  1  0  0  0  0
 13 14  1  0  0  0  0
 15 14  2  0  0  0  0
 16 17  2  0  0  0  0
 16 20  1  0  0  0  0
 17 18  1  0  0  0  0
 18 19  2  0  0  0  0
 20 21  1  0  0  0  0
 20 19  1  0  0  0  0
 22 27  1  0  0  0  0
 22  1  1  0  0  0  0
 24 25  1  0  0  0  0
 24 23  1  0  0  0  0
 26 25  2  0  0  0  0
 27 26  1  0  0  0  0
 28 27  2  0  0  0  0
 28 29  1  0  0  0  0
 29 24  2  0  0  0  0
M  END
>  <minimizedAffinity>
-8.03585148

$$$$
