REMARK  Name = 
REMARK  12 active torsions:
REMARK  status: ('A' for Active; 'I' for Inactive)
REMARK    1  A    between atoms: C_1  and  O_2
REMARK    2  A    between atoms: O_2  and  C_3
REMARK    3  A    between atoms: C_6  and  C_7
REMARK    4  A    between atoms: N_9  and  C_10
REMARK    5  A    between atoms: C_14  and  C_15
REMARK    6  A    between atoms: C_15  and  C_16
REMARK    7  A    between atoms: C_15  and  N_20
REMARK    8  A    between atoms: C_16  and  C_17
REMARK    9  A    between atoms: C_17  and  C_18
REMARK   10  A    between atoms: C_18  and  O_19
REMARK   11  A    between atoms: N_20  and  C_21
REMARK   12  A    between atoms: C_26  and  C_27
REMARK                            x       y       z     vdW  Elec       q    Type
REMARK                         _______ _______ _______ _____ _____    ______ ____
ROOT
ATOM      1  C   UNL     1       6.377   2.175  -3.072  0.00  0.00    +0.102 C 
ENDROOT
BRANCH   1   6
ATOM      2  C   UNL     1       4.490   5.088  -1.418  0.00  0.00    +0.034 A 
ATOM      3  C   UNL     1       5.331   5.396  -0.350  0.00  0.00    +0.023 A 
ATOM      4  C   UNL     1       6.413   4.573  -0.056  0.00  0.00    +0.002 A 
ATOM      5  C   UNL     1       6.716   3.493  -0.886  0.00  0.00    +0.005 A 
ATOM      6  C   UNL     1       5.954   3.225  -2.035  0.00  0.00    -0.026 A 
ATOM      7  C   UNL     1       4.787   3.996  -2.246  0.00  0.00    +0.028 A 
BRANCH   2  10
ATOM      8  C   UNL     1       2.224   5.761  -2.278  0.00  0.00    +0.248 C 
ATOM      9  O   UNL     1       1.700   6.642  -2.958  0.00  0.00    -0.270 OA
ATOM     10  N   UNL     1       3.444   5.984  -1.686  0.00  0.00    -0.281 N 
ATOM     11  H   UNL     1       3.634   6.967  -1.527  0.00  0.00    +0.155 HD
BRANCH   8  15
ATOM     12  C   UNL     1      -0.329   2.497  -1.167  0.00  0.00    +0.120 A 
ATOM     13  C   UNL     1      -0.454   3.110  -2.415  0.00  0.00    +0.046 A 
ATOM     14  C   UNL     1       0.424   4.129  -2.796  0.00  0.00    +0.016 A 
ATOM     15  C   UNL     1       1.433   4.550  -1.922  0.00  0.00    +0.037 A 
ATOM     16  C   UNL     1       1.533   3.957  -0.656  0.00  0.00    +0.016 A 
ATOM     17  C   UNL     1       0.658   2.930  -0.282  0.00  0.00    +0.046 A 
BRANCH  12  19
ATOM     18  C   UNL     1      -0.803   0.487  -0.034  0.00  0.00    +0.277 C 
ATOM     19  O   UNL     1      -1.260   1.534  -0.889  0.00  0.00    -0.495 OA
ENDBRANCH  12  19
ENDBRANCH   8  15
ENDBRANCH   2  10
ENDBRANCH   1   6
BRANCH   1  20
ATOM     20  N   UNL     1       6.435   0.829  -2.493  0.00  0.00    -0.322 N 
ATOM     21  H   UNL     1       7.045   0.765  -1.690  0.00  0.00    +0.148 HD
BRANCH  20  22
ATOM     22  C   UNL     1       5.187   0.229  -2.219  0.00  0.00    +0.130 A 
ATOM     23  N   UNL     1       4.122   0.607  -2.941  0.00  0.00    -0.220 NA
ATOM     24  C   UNL     1       2.934   0.399  -2.382  0.00  0.00    +0.223 A 
ATOM     25  N   UNL     1       2.744  -0.042  -1.139  0.00  0.00    -0.235 NA
ATOM     26  C   UNL     1       3.821  -0.498  -0.471  0.00  0.00    +0.088 A 
ATOM     27  C   UNL     1       3.787  -0.827   0.884  0.00  0.00    +0.063 A 
ATOM     28  C   UNL     1       4.844  -1.462   1.557  0.00  0.00    +0.015 A 
ATOM     29  C   UNL     1       6.022  -1.720   0.877  0.00  0.00    +0.002 A 
ATOM     30  C   UNL     1       6.162  -1.212  -0.409  0.00  0.00    +0.013 A 
ATOM     31  C   UNL     1       5.080  -0.552  -1.059  0.00  0.00    +0.041 A 
BRANCH  27  32
ATOM     32  C   UNL     1       2.818  -0.089   1.721  0.00  0.00    +0.244 C 
ATOM     33  N   UNL     1       3.350   1.071   2.242  0.00  0.00    -0.325 N 
ATOM     34  O   UNL     1       1.689  -0.462   1.943  0.00  0.00    -0.270 OA
ATOM     35  H   UNL     1       2.764   1.662   2.813  0.00  0.00    +0.145 HD
ATOM     36  H   UNL     1       4.290   1.381   2.033  0.00  0.00    +0.145 HD
ENDBRANCH  27  32
ENDBRANCH  20  22
ENDBRANCH   1  20
BRANCH   1  37
ATOM     37  C   UNL     1       7.705   2.501  -3.797  0.00  0.00    +0.029 C 
BRANCH  37  38
ATOM     38  C   UNL     1       9.036   2.541  -3.026  0.00  0.00    +0.030 C 
BRANCH  38  39
ATOM     39  C   UNL     1       9.453   1.302  -2.238  0.00  0.00    +0.156 C 
BRANCH  39  40
ATOM     40  O   UNL     1       9.203   0.097  -2.941  0.00  0.00    -0.395 OA
ATOM     41  H   UNL     1       8.259   0.071  -3.191  0.00  0.00    +0.209 HD
ENDBRANCH  39  40
ENDBRANCH  38  39
ENDBRANCH  37  38
ENDBRANCH   1  37
TORSDOF 11
