
 OpenBabel10152418433D

 41 44  0  0  1  0  0  0  0  0999 V2000
   -0.9350   -7.7140  -26.3570 C   0  0  2  0  0  3  0  0  0  0  0  0
    1.6060   -6.1510  -28.7830 C   0  0  0  0  0  0  0  0  0  0  0  0
    1.6590   -4.8360  -28.3230 C   0  0  0  0  0  3  0  0  0  0  0  0
    0.7640   -4.4010  -27.3530 C   0  0  0  0  0  3  0  0  0  0  0  0
   -0.1220   -5.3040  -26.7640 C   0  0  0  0  0  3  0  0  0  0  0  0
   -0.1210   -6.6610  -27.1220 C   0  0  0  0  0  0  0  0  0  0  0  0
    0.7070   -7.0560  -28.2000 C   0  0  0  0  0  3  0  0  0  0  0  0
    3.8090   -7.0980  -29.5330 C   0  0  0  0  0  0  0  0  0  0  0  0
    4.7350   -6.8270  -30.2970 O   0  0  0  0  0  0  0  0  0  0  0  0
    2.5700   -6.5360  -29.7260 N   0  0  0  0  0  0  0  0  0  0  0  0
    2.4030   -6.2640  -30.6880 H   0  0  0  0  0  0  0  0  0  0  0  0
    3.9530  -10.4030  -26.8050 C   0  0  0  0  0  0  0  0  0  0  0  0
    4.2550  -10.5790  -28.1550 C   0  0  0  0  0  3  0  0  0  0  0  0
    4.2730   -9.4860  -29.0250 C   0  0  0  0  0  3  0  0  0  0  0  0
    3.9790   -8.2030  -28.5480 C   0  0  0  0  0  0  0  0  0  0  0  0
    3.6440   -8.0340  -27.1980 C   0  0  0  0  0  3  0  0  0  0  0  0
    3.6370   -9.1310  -26.3270 C   0  0  0  0  0  3  0  0  0  0  0  0
    2.6170  -12.0380  -25.7770 C   0  0  0  0  0  1  0  0  0  0  0  0
    3.9260  -11.5440  -26.0510 O   0  0  0  0  0  0  0  0  0  0  0  0
   -1.1050   -7.3520  -24.9470 N   0  0  0  0  0  0  0  0  0  0  0  0
   -2.0730   -7.2450  -24.6770 H   0  0  0  0  0  0  0  0  0  0  0  0
   -0.4210   -8.1640  -24.0170 C   0  0  0  0  0  0  0  0  0  0  0  0
    0.5330   -8.9910  -24.4670 N   0  0  0  0  0  0  0  0  0  0  0  0
    0.8060  -10.0420  -23.6980 C   0  0  0  0  0  3  0  0  0  0  0  0
    0.1250  -10.3770  -22.6010 N   0  0  0  0  0  0  0  0  0  0  0  0
   -0.7630   -9.4840  -22.1230 C   0  0  0  0  0  0  0  0  0  0  0  0
   -1.6580   -9.7770  -21.0920 C   0  0  0  0  0  0  0  0  0  0  0  0
   -2.4620   -8.8100  -20.4650 C   0  0  0  0  0  3  0  0  0  0  0  0
   -2.4420   -7.5070  -20.9280 C   0  0  0  0  0  3  0  0  0  0  0  0
   -1.7330   -7.2350  -22.0900 C   0  0  0  0  0  3  0  0  0  0  0  0
   -0.9390   -8.2400  -22.7170 C   0  0  0  0  0  0  0  0  0  0  0  0
   -2.1100  -11.1770  -20.9900 C   0  0  0  0  0  0  0  0  0  0  0  0
   -1.7610  -11.9320  -22.0840 N   0  0  0  0  0  0  0  0  0  0  0  0
   -2.7400  -11.6240  -20.0460 O   0  0  0  0  0  0  0  0  0  0  0  0
   -2.0010  -12.9130  -22.1010 H   0  0  0  0  0  0  0  0  0  0  0  0
   -1.2230  -11.5560  -22.8550 H   0  0  0  0  0  0  0  0  0  0  0  0
   -0.3780   -9.1540  -26.4710 C   0  0  0  0  0  2  0  0  0  0  0  0
   -1.2950  -10.3330  -26.8460 C   0  0  0  0  0  2  0  0  0  0  0  0
   -1.1140  -11.6560  -26.1050 C   0  0  0  0  0  2  0  0  0  0  0  0
   -1.8040  -11.6880  -24.8690 O   0  0  0  0  0  0  0  0  0  0  0  0
   -1.5200  -10.9230  -24.3310 H   0  0  0  0  0  0  0  0  0  0  0  0
  1 37  1  1  0  0  0
  1 20  1  0  0  0  0
  2  3  2  0  0  0  0
  2  7  1  0  0  0  0
  3  4  1  0  0  0  0
  4  5  2  0  0  0  0
  6  5  1  0  0  0  0
  6  1  1  0  0  0  0
  7  6  2  0  0  0  0
  8 15  1  0  0  0  0
  9  8  2  0  0  0  0
 10  8  1  0  0  0  0
 10  2  1  0  0  0  0
 11 10  1  0  0  0  0
 12 17  1  0  0  0  0
 12 19  1  0  0  0  0
 13 12  2  0  0  0  0
 14 15  2  0  0  0  0
 14 13  1  0  0  0  0
 15 16  1  0  0  0  0
 16 17  2  0  0  0  0
 19 18  1  0  0  0  0
 20 21  1  0  0  0  0
 20 22  1  0  0  0  0
 22 31  1  0  0  0  0
 23 22  2  0  0  0  0
 23 24  1  0  0  0  0
 24 25  2  0  0  0  0
 25 26  1  0  0  0  0
 26 27  1  0  0  0  0
 27 32  1  0  0  0  0
 27 28  2  0  0  0  0
 29 28  1  0  0  0  0
 30 29  2  0  0  0  0
 31 26  2  0  0  0  0
 31 30  1  0  0  0  0
 32 34  2  0  0  0  0
 33 32  1  0  0  0  0
 35 33  1  0  0  0  0
 36 33  1  0  0  0  0
 38 37  1  0  0  0  0
 38 39  1  0  0  0  0
 39 40  1  0  0  0  0
 40 41  1  0  0  0  0
M  END
>  <minimizedAffinity>
-7.13351631

$$$$
