
 OpenBabel10152418433D

 41 44  0  0  1  0  0  0  0  0999 V2000
    0.3960   -9.9710  -25.3620 C   0  0  2  0  0  3  0  0  0  0  0  0
    3.4600   -9.3150  -27.5900 C   0  0  0  0  0  0  0  0  0  0  0  0
    4.3090  -10.3540  -27.2120 C   0  0  0  0  0  3  0  0  0  0  0  0
    3.9800  -11.1630  -26.1300 C   0  0  0  0  0  3  0  0  0  0  0  0
    2.7540  -11.0020  -25.4840 C   0  0  0  0  0  3  0  0  0  0  0  0
    1.8260  -10.0400  -25.9160 C   0  0  0  0  0  0  0  0  0  0  0  0
    2.2340   -9.1440  -26.9330 C   0  0  0  0  0  3  0  0  0  0  0  0
    3.1080   -7.6420  -29.4310 C   0  0  0  0  0  0  0  0  0  0  0  0
    3.2650   -7.5390  -30.6470 O   0  0  0  0  0  0  0  0  0  0  0  0
    3.8290   -8.5700  -28.7200 N   0  0  0  0  0  0  0  0  0  0  0  0
    4.7050   -8.8190  -29.1650 H   0  0  0  0  0  0  0  0  0  0  0  0
    0.6580   -4.5800  -27.6970 C   0  0  0  0  0  0  0  0  0  0  0  0
    0.1300   -5.8400  -27.9820 C   0  0  0  0  0  3  0  0  0  0  0  0
    0.9510   -6.8540  -28.4830 C   0  0  0  0  0  3  0  0  0  0  0  0
    2.3100   -6.6100  -28.7120 C   0  0  0  0  0  0  0  0  0  0  0  0
    2.8300   -5.3340  -28.4540 C   0  0  0  0  0  3  0  0  0  0  0  0
    2.0060   -4.3230  -27.9430 C   0  0  0  0  0  3  0  0  0  0  0  0
   -1.0040   -4.0680  -26.1180 C   0  0  0  0  0  1  0  0  0  0  0  0
   -0.2400   -3.6510  -27.2470 O   0  0  0  0  0  0  0  0  0  0  0  0
   -0.3420   -8.8260  -25.9010 N   0  0  0  0  0  0  0  0  0  0  0  0
   -1.2250   -9.0840  -26.3220 H   0  0  0  0  0  0  0  0  0  0  0  0
   -0.5160   -7.7370  -25.0210 C   0  0  0  0  0  0  0  0  0  0  0  0
    0.5290   -6.9320  -24.7810 N   0  0  0  0  0  0  0  0  0  0  0  0
    0.4900   -6.2490  -23.6400 C   0  0  0  0  0  3  0  0  0  0  0  0
   -0.4370   -6.4020  -22.6930 N   0  0  0  0  0  0  0  0  0  0  0  0
   -1.5200   -7.1450  -22.9990 C   0  0  0  0  0  0  0  0  0  0  0  0
   -2.4730   -7.5250  -22.0530 C   0  0  0  0  0  0  0  0  0  0  0  0
   -3.6920   -8.1420  -22.3840 C   0  0  0  0  0  3  0  0  0  0  0  0
   -3.9480   -8.4720  -23.7030 C   0  0  0  0  0  3  0  0  0  0  0  0
   -2.9280   -8.3090  -24.6290 C   0  0  0  0  0  3  0  0  0  0  0  0
   -1.6950   -7.6970  -24.2620 C   0  0  0  0  0  0  0  0  0  0  0  0
   -1.9920   -7.7170  -20.6710 C   0  0  0  0  0  0  0  0  0  0  0  0
   -0.9480   -8.6060  -20.5890 N   0  0  0  0  0  0  0  0  0  0  0  0
   -2.4720   -7.1610  -19.6980 O   0  0  0  0  0  0  0  0  0  0  0  0
   -0.5270   -8.7880  -19.6890 H   0  0  0  0  0  0  0  0  0  0  0  0
   -0.5460   -9.0490  -21.4060 H   0  0  0  0  0  0  0  0  0  0  0  0
    0.3140   -9.9740  -23.8160 C   0  0  0  0  0  2  0  0  0  0  0  0
   -0.1570  -11.2230  -23.0480 C   0  0  0  0  0  2  0  0  0  0  0  0
   -1.6150  -11.2930  -22.6010 C   0  0  0  0  0  2  0  0  0  0  0  0
   -1.7500  -11.3920  -21.1940 O   0  0  0  0  0  0  0  0  0  0  0  0
   -1.2320  -12.1610  -20.8830 H   0  0  0  0  0  0  0  0  0  0  0  0
  1 37  1  1  0  0  0
  2  3  2  0  0  0  0
  2  7  1  0  0  0  0
  3  4  1  0  0  0  0
  4  5  2  0  0  0  0
  6  5  1  0  0  0  0
  6  1  1  0  0  0  0
  7  6  2  0  0  0  0
  8 10  1  0  0  0  0
  8 15  1  0  0  0  0
  9  8  2  0  0  0  0
 10  2  1  0  0  0  0
 11 10  1  0  0  0  0
 12 19  1  0  0  0  0
 13 12  2  0  0  0  0
 14 13  1  0  0  0  0
 15 14  2  0  0  0  0
 15 16  1  0  0  0  0
 16 17  2  0  0  0  0
 17 12  1  0  0  0  0
 19 18  1  0  0  0  0
 20  1  1  0  0  0  0
 20 22  1  0  0  0  0
 21 20  1  0  0  0  0
 22 23  2  0  0  0  0
 22 31  1  0  0  0  0
 23 24  1  0  0  0  0
 24 25  2  0  0  0  0
 26 25  1  0  0  0  0
 26 27  1  0  0  0  0
 27 32  1  0  0  0  0
 28 27  2  0  0  0  0
 29 28  1  0  0  0  0
 30 31  1  0  0  0  0
 30 29  2  0  0  0  0
 31 26  2  0  0  0  0
 32 33  1  0  0  0  0
 32 34  2  0  0  0  0
 33 35  1  0  0  0  0
 36 33  1  0  0  0  0
 37 38  1  0  0  0  0
 38 39  1  0  0  0  0
 39 40  1  0  0  0  0
 40 41  1  0  0  0  0
M  END
>  <minimizedAffinity>
-6.06523323

$$$$
