
 OpenBabel10152418433D

 41 44  0  0  1  0  0  0  0  0999 V2000
    2.0010   -9.6870  -24.4370 C   0  0  2  0  0  3  0  0  0  0  0  0
    3.9210   -9.2100  -27.7350 C   0  0  0  0  0  0  0  0  0  0  0  0
    4.0770  -10.5280  -28.1610 C   0  0  0  0  0  3  0  0  0  0  0  0
    3.7230  -11.5780  -27.3220 C   0  0  0  0  0  3  0  0  0  0  0  0
    3.1180  -11.3160  -26.0920 C   0  0  0  0  0  3  0  0  0  0  0  0
    2.8420  -10.0010  -25.6830 C   0  0  0  0  0  0  0  0  0  0  0  0
    3.3250   -8.9460  -26.4930 C   0  0  0  0  0  3  0  0  0  0  0  0
    3.4340   -7.3110  -29.3070 C   0  0  0  0  0  0  0  0  0  0  0  0
    3.7140   -6.9430  -30.4470 O   0  0  0  0  0  0  0  0  0  0  0  0
    4.2510   -8.2000  -28.6510 N   0  0  0  0  0  0  0  0  0  0  0  0
    5.2080   -8.1790  -28.9820 H   0  0  0  0  0  0  0  0  0  0  0  0
    0.0890   -5.3280  -27.5010 C   0  0  0  0  0  0  0  0  0  0  0  0
    0.0990   -6.7150  -27.6540 C   0  0  0  0  0  3  0  0  0  0  0  0
    1.2210   -7.3610  -28.1800 C   0  0  0  0  0  3  0  0  0  0  0  0
    2.3420   -6.6190  -28.5670 C   0  0  0  0  0  0  0  0  0  0  0  0
    2.3170   -5.2230  -28.4430 C   0  0  0  0  0  3  0  0  0  0  0  0
    1.1940   -4.5800  -27.9060 C   0  0  0  0  0  3  0  0  0  0  0  0
   -0.9130   -3.5420  -26.3510 C   0  0  0  0  0  1  0  0  0  0  0  0
   -1.0720   -4.7950  -27.0130 O   0  0  0  0  0  0  0  0  0  0  0  0
    1.3720  -10.8920  -23.8880 N   0  0  0  0  0  0  0  0  0  0  0  0
    1.5760  -11.0350  -22.9080 H   0  0  0  0  0  0  0  0  0  0  0  0
   -0.0120  -11.0250  -24.1270 C   0  0  0  0  0  0  0  0  0  0  0  0
   -0.4210  -11.3700  -25.3560 N   0  0  0  0  0  0  0  0  0  0  0  0
   -1.6670  -11.0280  -25.6750 C   0  0  0  0  0  3  0  0  0  0  0  0
   -2.4680  -10.2810  -24.9130 N   0  0  0  0  0  0  0  0  0  0  0  0
   -2.0680  -10.0290  -23.6510 C   0  0  0  0  0  0  0  0  0  0  0  0
   -2.7230   -9.1260  -22.8120 C   0  0  0  0  0  0  0  0  0  0  0  0
   -2.4300   -8.9850  -21.4440 C   0  0  0  0  0  3  0  0  0  0  0  0
   -1.3890   -9.7120  -20.8960 C   0  0  0  0  0  3  0  0  0  0  0  0
   -0.5800  -10.4470  -21.7520 C   0  0  0  0  0  3  0  0  0  0  0  0
   -0.8900  -10.5580  -23.1380 C   0  0  0  0  0  0  0  0  0  0  0  0
   -3.3880   -7.9820  -23.4640 C   0  0  0  0  0  0  0  0  0  0  0  0
   -4.6580   -7.7600  -22.9860 N   0  0  0  0  0  0  0  0  0  0  0  0
   -2.8800   -7.3070  -24.3420 O   0  0  0  0  0  0  0  0  0  0  0  0
   -5.1900   -6.9820  -23.3480 H   0  0  0  0  0  0  0  0  0  0  0  0
   -5.0640   -8.3160  -22.2440 H   0  0  0  0  0  0  0  0  0  0  0  0
    0.9370   -8.5830  -24.6510 C   0  0  0  0  0  2  0  0  0  0  0  0
    1.2760   -7.0990  -24.4210 C   0  0  0  0  0  2  0  0  0  0  0  0
    0.1510   -6.1560  -24.0020 C   0  0  0  0  0  2  0  0  0  0  0  0
   -0.4310   -6.5160  -22.7620 O   0  0  0  0  0  0  0  0  0  0  0  0
   -0.7300   -7.4460  -22.8150 H   0  0  0  0  0  0  0  0  0  0  0  0
  1 37  1  6  0  0  0
  1 20  1  0  0  0  0
  2  7  1  0  0  0  0
  3  2  2  0  0  0  0
  3  4  1  0  0  0  0
  4  5  2  0  0  0  0
  5  6  1  0  0  0  0
  6  1  1  0  0  0  0
  7  6  2  0  0  0  0
  8 10  1  0  0  0  0
  8 15  1  0  0  0  0
  9  8  2  0  0  0  0
 10  2  1  0  0  0  0
 11 10  1  0  0  0  0
 12 19  1  0  0  0  0
 13 12  1  0  0  0  0
 14 13  2  0  0  0  0
 15 16  2  0  0  0  0
 15 14  1  0  0  0  0
 16 17  1  0  0  0  0
 17 12  2  0  0  0  0
 19 18  1  0  0  0  0
 20 21  1  0  0  0  0
 22 20  1  0  0  0  0
 22 31  1  0  0  0  0
 23 22  2  0  0  0  0
 24 23  1  0  0  0  0
 24 25  2  0  0  0  0
 25 26  1  0  0  0  0
 26 31  2  0  0  0  0
 26 27  1  0  0  0  0
 27 28  2  0  0  0  0
 28 29  1  0  0  0  0
 30 29  2  0  0  0  0
 31 30  1  0  0  0  0
 32 33  1  0  0  0  0
 32 27  1  0  0  0  0
 33 36  1  0  0  0  0
 34 32  2  0  0  0  0
 35 33  1  0  0  0  0
 37 38  1  0  0  0  0
 38 39  1  0  0  0  0
 39 40  1  0  0  0  0
 41 40  1  0  0  0  0
M  END
>  <minimizedAffinity>
-7.85078812

$$$$

 OpenBabel10152418433D

 41 44  0  0  1  0  0  0  0  0999 V2000
   -1.0750   -6.4280  -25.5110 C   0  0  2  0  0  3  0  0  0  0  0  0
   -1.5830   -8.9250  -22.6320 C   0  0  0  0  0  0  0  0  0  0  0  0
   -2.9740   -8.9670  -22.5410 C   0  0  0  0  0  3  0  0  0  0  0  0
   -3.7480   -8.0770  -23.2770 C   0  0  0  0  0  3  0  0  0  0  0  0
   -3.1400   -7.2080  -24.1840 C   0  0  0  0  0  3  0  0  0  0  0  0
   -1.7510   -7.2220  -24.3840 C   0  0  0  0  0  0  0  0  0  0  0  0
   -0.9720   -8.0430  -23.5340 C   0  0  0  0  0  3  0  0  0  0  0  0
   -0.5930  -11.1940  -22.2070 C   0  0  0  0  0  0  0  0  0  0  0  0
   -0.5280  -12.0370  -21.3120 O   0  0  0  0  0  0  0  0  0  0  0  0
   -0.8680   -9.8840  -21.9000 N   0  0  0  0  0  0  0  0  0  0  0  0
   -0.6040   -9.6340  -20.9540 H   0  0  0  0  0  0  0  0  0  0  0  0
    0.8340  -11.8970  -26.1890 C   0  0  0  0  0  0  0  0  0  0  0  0
    1.6870  -12.0250  -25.0920 C   0  0  0  0  0  3  0  0  0  0  0  0
    1.1990  -11.8620  -23.7930 C   0  0  0  0  0  3  0  0  0  0  0  0
   -0.1510  -11.5590  -23.5820 C   0  0  0  0  0  0  0  0  0  0  0  0
   -0.9990  -11.3990  -24.6870 C   0  0  0  0  0  3  0  0  0  0  0  0
   -0.5080  -11.5730  -25.9870 C   0  0  0  0  0  3  0  0  0  0  0  0
    2.8480  -12.0090  -27.3930 C   0  0  0  0  0  1  0  0  0  0  0  0
    1.4220  -12.0380  -27.4160 O   0  0  0  0  0  0  0  0  0  0  0  0
   -0.1900   -7.2730  -26.3180 N   0  0  0  0  0  0  0  0  0  0  0  0
   -0.6910   -7.8890  -26.9440 H   0  0  0  0  0  0  0  0  0  0  0  0
    0.8400   -6.6000  -27.0090 C   0  0  0  0  0  0  0  0  0  0  0  0
    0.5090   -5.6030  -27.8430 N   0  0  0  0  0  0  0  0  0  0  0  0
    1.3900   -5.3270  -28.8010 C   0  0  0  0  0  3  0  0  0  0  0  0
    2.4910   -6.0370  -29.0490 N   0  0  0  0  0  0  0  0  0  0  0  0
    2.8450   -6.9710  -28.1430 C   0  0  0  0  0  0  0  0  0  0  0  0
    3.8690   -7.8940  -28.3630 C   0  0  0  0  0  0  0  0  0  0  0  0
    4.3680   -8.7510  -27.3670 C   0  0  0  0  0  3  0  0  0  0  0  0
    3.7760   -8.7540  -26.1170 C   0  0  0  0  0  3  0  0  0  0  0  0
    2.6170   -8.0110  -25.9380 C   0  0  0  0  0  3  0  0  0  0  0  0
    2.1230   -7.1640  -26.9720 C   0  0  0  0  0  0  0  0  0  0  0  0
    4.0970   -8.3060  -29.7610 C   0  0  0  0  0  0  0  0  0  0  0  0
    4.7670   -7.3570  -30.4950 N   0  0  0  0  0  0  0  0  0  0  0  0
    3.7240   -9.3680  -30.2290 O   0  0  0  0  0  0  0  0  0  0  0  0
    4.9980   -7.5520  -31.4580 H   0  0  0  0  0  0  0  0  0  0  0  0
    5.0880   -6.4850  -30.0920 H   0  0  0  0  0  0  0  0  0  0  0  0
   -0.3130   -5.1680  -25.0310 C   0  0  0  0  0  2  0  0  0  0  0  0
   -1.0670   -3.8790  -24.6580 C   0  0  0  0  0  2  0  0  0  0  0  0
   -1.0900   -2.7340  -25.6680 C   0  0  0  0  0  2  0  0  0  0  0  0
   -0.5410   -3.1010  -26.9220 O   0  0  0  0  0  0  0  0  0  0  0  0
    0.3620   -3.4490  -26.7790 H   0  0  0  0  0  0  0  0  0  0  0  0
  1 37  1  1  0  0  0
  1  6  1  0  0  0  0
  2  3  1  0  0  0  0
  2 10  1  0  0  0  0
  4  3  2  0  0  0  0
  5  4  1  0  0  0  0
  6  5  2  0  0  0  0
  6  7  1  0  0  0  0
  7  2  2  0  0  0  0
  8 10  1  0  0  0  0
  8  9  2  0  0  0  0
 10 11  1  0  0  0  0
 12 17  2  0  0  0  0
 12 13  1  0  0  0  0
 13 14  2  0  0  0  0
 14 15  1  0  0  0  0
 15  8  1  0  0  0  0
 16 15  2  0  0  0  0
 17 16  1  0  0  0  0
 19 18  1  0  0  0  0
 19 12  1  0  0  0  0
 20  1  1  0  0  0  0
 21 20  1  0  0  0  0
 22 31  1  0  0  0  0
 22 20  1  0  0  0  0
 23 22  2  0  0  0  0
 24 23  1  0  0  0  0
 25 24  2  0  0  0  0
 25 26  1  0  0  0  0
 26 31  1  0  0  0  0
 27 26  2  0  0  0  0
 27 28  1  0  0  0  0
 28 29  2  0  0  0  0
 29 30  1  0  0  0  0
 31 30  2  0  0  0  0
 32 27  1  0  0  0  0
 33 36  1  0  0  0  0
 33 32  1  0  0  0  0
 34 32  2  0  0  0  0
 35 33  1  0  0  0  0
 37 38  1  0  0  0  0
 39 38  1  0  0  0  0
 40 41  1  0  0  0  0
 40 39  1  0  0  0  0
M  END
>  <minimizedAffinity>
-7.427948

$$$$

 OpenBabel10152418433D

 41 44  0  0  1  0  0  0  0  0999 V2000
   -0.9350   -7.7140  -26.3570 C   0  0  2  0  0  3  0  0  0  0  0  0
    1.6060   -6.1510  -28.7830 C   0  0  0  0  0  0  0  0  0  0  0  0
    1.6590   -4.8360  -28.3230 C   0  0  0  0  0  3  0  0  0  0  0  0
    0.7640   -4.4010  -27.3530 C   0  0  0  0  0  3  0  0  0  0  0  0
   -0.1220   -5.3040  -26.7640 C   0  0  0  0  0  3  0  0  0  0  0  0
   -0.1210   -6.6610  -27.1220 C   0  0  0  0  0  0  0  0  0  0  0  0
    0.7070   -7.0560  -28.2000 C   0  0  0  0  0  3  0  0  0  0  0  0
    3.8090   -7.0980  -29.5330 C   0  0  0  0  0  0  0  0  0  0  0  0
    4.7350   -6.8270  -30.2970 O   0  0  0  0  0  0  0  0  0  0  0  0
    2.5700   -6.5360  -29.7260 N   0  0  0  0  0  0  0  0  0  0  0  0
    2.4030   -6.2640  -30.6880 H   0  0  0  0  0  0  0  0  0  0  0  0
    3.9530  -10.4030  -26.8050 C   0  0  0  0  0  0  0  0  0  0  0  0
    4.2550  -10.5790  -28.1550 C   0  0  0  0  0  3  0  0  0  0  0  0
    4.2730   -9.4860  -29.0250 C   0  0  0  0  0  3  0  0  0  0  0  0
    3.9790   -8.2030  -28.5480 C   0  0  0  0  0  0  0  0  0  0  0  0
    3.6440   -8.0340  -27.1980 C   0  0  0  0  0  3  0  0  0  0  0  0
    3.6370   -9.1310  -26.3270 C   0  0  0  0  0  3  0  0  0  0  0  0
    2.6170  -12.0380  -25.7770 C   0  0  0  0  0  1  0  0  0  0  0  0
    3.9260  -11.5440  -26.0510 O   0  0  0  0  0  0  0  0  0  0  0  0
   -1.1050   -7.3520  -24.9470 N   0  0  0  0  0  0  0  0  0  0  0  0
   -2.0730   -7.2450  -24.6770 H   0  0  0  0  0  0  0  0  0  0  0  0
   -0.4210   -8.1640  -24.0170 C   0  0  0  0  0  0  0  0  0  0  0  0
    0.5330   -8.9910  -24.4670 N   0  0  0  0  0  0  0  0  0  0  0  0
    0.8060  -10.0420  -23.6980 C   0  0  0  0  0  3  0  0  0  0  0  0
    0.1250  -10.3770  -22.6010 N   0  0  0  0  0  0  0  0  0  0  0  0
   -0.7630   -9.4840  -22.1230 C   0  0  0  0  0  0  0  0  0  0  0  0
   -1.6580   -9.7770  -21.0920 C   0  0  0  0  0  0  0  0  0  0  0  0
   -2.4620   -8.8100  -20.4650 C   0  0  0  0  0  3  0  0  0  0  0  0
   -2.4420   -7.5070  -20.9280 C   0  0  0  0  0  3  0  0  0  0  0  0
   -1.7330   -7.2350  -22.0900 C   0  0  0  0  0  3  0  0  0  0  0  0
   -0.9390   -8.2400  -22.7170 C   0  0  0  0  0  0  0  0  0  0  0  0
   -2.1100  -11.1770  -20.9900 C   0  0  0  0  0  0  0  0  0  0  0  0
   -1.7610  -11.9320  -22.0840 N   0  0  0  0  0  0  0  0  0  0  0  0
   -2.7400  -11.6240  -20.0460 O   0  0  0  0  0  0  0  0  0  0  0  0
   -2.0010  -12.9130  -22.1010 H   0  0  0  0  0  0  0  0  0  0  0  0
   -1.2230  -11.5560  -22.8550 H   0  0  0  0  0  0  0  0  0  0  0  0
   -0.3780   -9.1540  -26.4710 C   0  0  0  0  0  2  0  0  0  0  0  0
   -1.2950  -10.3330  -26.8460 C   0  0  0  0  0  2  0  0  0  0  0  0
   -1.1140  -11.6560  -26.1050 C   0  0  0  0  0  2  0  0  0  0  0  0
   -1.8040  -11.6880  -24.8690 O   0  0  0  0  0  0  0  0  0  0  0  0
   -1.5200  -10.9230  -24.3310 H   0  0  0  0  0  0  0  0  0  0  0  0
  1 37  1  1  0  0  0
  1 20  1  0  0  0  0
  2  3  2  0  0  0  0
  2  7  1  0  0  0  0
  3  4  1  0  0  0  0
  4  5  2  0  0  0  0
  6  5  1  0  0  0  0
  6  1  1  0  0  0  0
  7  6  2  0  0  0  0
  8 15  1  0  0  0  0
  9  8  2  0  0  0  0
 10  8  1  0  0  0  0
 10  2  1  0  0  0  0
 11 10  1  0  0  0  0
 12 17  1  0  0  0  0
 12 19  1  0  0  0  0
 13 12  2  0  0  0  0
 14 15  2  0  0  0  0
 14 13  1  0  0  0  0
 15 16  1  0  0  0  0
 16 17  2  0  0  0  0
 19 18  1  0  0  0  0
 20 21  1  0  0  0  0
 20 22  1  0  0  0  0
 22 31  1  0  0  0  0
 23 22  2  0  0  0  0
 23 24  1  0  0  0  0
 24 25  2  0  0  0  0
 25 26  1  0  0  0  0
 26 27  1  0  0  0  0
 27 32  1  0  0  0  0
 27 28  2  0  0  0  0
 29 28  1  0  0  0  0
 30 29  2  0  0  0  0
 31 26  2  0  0  0  0
 31 30  1  0  0  0  0
 32 34  2  0  0  0  0
 33 32  1  0  0  0  0
 35 33  1  0  0  0  0
 36 33  1  0  0  0  0
 38 37  1  0  0  0  0
 38 39  1  0  0  0  0
 39 40  1  0  0  0  0
 40 41  1  0  0  0  0
M  END
>  <minimizedAffinity>
-7.13351631

$$$$

 OpenBabel10152418433D

 41 44  0  0  1  0  0  0  0  0999 V2000
    1.0800  -10.7720  -25.7460 C   0  0  2  0  0  3  0  0  0  0  0  0
    4.0470   -9.3140  -27.7090 C   0  0  0  0  0  0  0  0  0  0  0  0
    4.9740  -10.3520  -27.6270 C   0  0  0  0  0  3  0  0  0  0  0  0
    4.7230  -11.4460  -26.8070 C   0  0  0  0  0  3  0  0  0  0  0  0
    3.5010  -11.5570  -26.1430 C   0  0  0  0  0  3  0  0  0  0  0  0
    2.5000  -10.5840  -26.2970 C   0  0  0  0  0  0  0  0  0  0  0  0
    2.8240   -9.4180  -27.0310 C   0  0  0  0  0  3  0  0  0  0  0  0
    3.4960   -7.3730  -29.2060 C   0  0  0  0  0  0  0  0  0  0  0  0
    3.7510   -6.9590  -30.3360 O   0  0  0  0  0  0  0  0  0  0  0  0
    4.3410   -8.2650  -28.5930 N   0  0  0  0  0  0  0  0  0  0  0  0
    5.2940   -8.2100  -28.9350 H   0  0  0  0  0  0  0  0  0  0  0  0
    0.1300   -5.5360  -27.2880 C   0  0  0  0  0  0  0  0  0  0  0  0
    0.1740   -6.9170  -27.4830 C   0  0  0  0  0  3  0  0  0  0  0  0
    1.3030   -7.5160  -28.0460 C   0  0  0  0  0  3  0  0  0  0  0  0
    2.3980   -6.7330  -28.4280 C   0  0  0  0  0  0  0  0  0  0  0  0
    2.3380   -5.3430  -28.2600 C   0  0  0  0  0  3  0  0  0  0  0  0
    1.2080   -4.7470  -27.6860 C   0  0  0  0  0  3  0  0  0  0  0  0
   -0.9720   -3.6880  -26.3450 C   0  0  0  0  0  1  0  0  0  0  0  0
   -1.0370   -5.0500  -26.7640 O   0  0  0  0  0  0  0  0  0  0  0  0
    1.0660  -11.6250  -24.5550 N   0  0  0  0  0  0  0  0  0  0  0  0
    1.9830  -11.9660  -24.2990 H   0  0  0  0  0  0  0  0  0  0  0  0
    0.4060  -11.0940  -23.4260 C   0  0  0  0  0  0  0  0  0  0  0  0
   -0.2150  -11.9370  -22.5890 N   0  0  0  0  0  0  0  0  0  0  0  0
   -1.1900  -11.4140  -21.8500 C   0  0  0  0  0  3  0  0  0  0  0  0
   -1.6530  -10.1690  -21.9740 N   0  0  0  0  0  0  0  0  0  0  0  0
   -0.9520   -9.3210  -22.7520 C   0  0  0  0  0  0  0  0  0  0  0  0
   -1.4160   -8.0510  -23.1020 C   0  0  0  0  0  0  0  0  0  0  0  0
   -0.6270   -7.0910  -23.7590 C   0  0  0  0  0  3  0  0  0  0  0  0
    0.6540   -7.4260  -24.1610 C   0  0  0  0  0  3  0  0  0  0  0  0
    1.0600   -8.7460  -24.0250 C   0  0  0  0  0  3  0  0  0  0  0  0
    0.2320   -9.7040  -23.3710 C   0  0  0  0  0  0  0  0  0  0  0  0
   -2.8780   -7.8900  -23.2140 C   0  0  0  0  0  0  0  0  0  0  0  0
   -3.5060   -7.8580  -21.9930 N   0  0  0  0  0  0  0  0  0  0  0  0
   -3.4760   -7.8070  -24.2730 O   0  0  0  0  0  0  0  0  0  0  0  0
   -4.5060   -7.7230  -21.9580 H   0  0  0  0  0  0  0  0  0  0  0  0
   -2.9980   -7.9100  -21.1180 H   0  0  0  0  0  0  0  0  0  0  0  0
    0.0610  -11.2970  -26.7870 C   0  0  0  0  0  2  0  0  0  0  0  0
   -1.3130  -10.6260  -26.9620 C   0  0  0  0  0  2  0  0  0  0  0  0
   -2.2790  -10.6290  -25.7800 C   0  0  0  0  0  2  0  0  0  0  0  0
   -2.1400  -11.7800  -24.9650 O   0  0  0  0  0  0  0  0  0  0  0  0
   -2.2410  -12.5750  -25.5260 H   0  0  0  0  0  0  0  0  0  0  0  0
  1 37  1  6  0  0  0
  1 20  1  0  0  0  0
  2  3  2  0  0  0  0
  2  7  1  0  0  0  0
  3  4  1  0  0  0  0
  4  5  2  0  0  0  0
  6  5  1  0  0  0  0
  6  1  1  0  0  0  0
  7  6  2  0  0  0  0
  8 10  1  0  0  0  0
  8 15  1  0  0  0  0
  9  8  2  0  0  0  0
 10  2  1  0  0  0  0
 11 10  1  0  0  0  0
 12 19  1  0  0  0  0
 13 12  1  0  0  0  0
 14 13  2  0  0  0  0
 15 16  2  0  0  0  0
 15 14  1  0  0  0  0
 16 17  1  0  0  0  0
 17 12  2  0  0  0  0
 19 18  1  0  0  0  0
 20 21  1  0  0  0  0
 20 22  1  0  0  0  0
 22 31  2  0  0  0  0
 22 23  1  0  0  0  0
 23 24  2  0  0  0  0
 25 24  1  0  0  0  0
 26 25  2  0  0  0  0
 27 26  1  0  0  0  0
 28 27  2  0  0  0  0
 29 30  2  0  0  0  0
 29 28  1  0  0  0  0
 30 31  1  0  0  0  0
 31 26  1  0  0  0  0
 32 27  1  0  0  0  0
 32 33  1  0  0  0  0
 33 35  1  0  0  0  0
 33 36  1  0  0  0  0
 34 32  2  0  0  0  0
 38 37  1  0  0  0  0
 38 39  1  0  0  0  0
 39 40  1  0  0  0  0
 41 40  1  0  0  0  0
M  END
>  <minimizedAffinity>
-7.0470562

$$$$

 OpenBabel10152418433D

 41 44  0  0  1  0  0  0  0  0999 V2000
    0.3960   -9.9710  -25.3620 C   0  0  2  0  0  3  0  0  0  0  0  0
    3.4600   -9.3150  -27.5900 C   0  0  0  0  0  0  0  0  0  0  0  0
    4.3090  -10.3540  -27.2120 C   0  0  0  0  0  3  0  0  0  0  0  0
    3.9800  -11.1630  -26.1300 C   0  0  0  0  0  3  0  0  0  0  0  0
    2.7540  -11.0020  -25.4840 C   0  0  0  0  0  3  0  0  0  0  0  0
    1.8260  -10.0400  -25.9160 C   0  0  0  0  0  0  0  0  0  0  0  0
    2.2340   -9.1440  -26.9330 C   0  0  0  0  0  3  0  0  0  0  0  0
    3.1080   -7.6420  -29.4310 C   0  0  0  0  0  0  0  0  0  0  0  0
    3.2650   -7.5390  -30.6470 O   0  0  0  0  0  0  0  0  0  0  0  0
    3.8290   -8.5700  -28.7200 N   0  0  0  0  0  0  0  0  0  0  0  0
    4.7050   -8.8190  -29.1650 H   0  0  0  0  0  0  0  0  0  0  0  0
    0.6580   -4.5800  -27.6970 C   0  0  0  0  0  0  0  0  0  0  0  0
    0.1300   -5.8400  -27.9820 C   0  0  0  0  0  3  0  0  0  0  0  0
    0.9510   -6.8540  -28.4830 C   0  0  0  0  0  3  0  0  0  0  0  0
    2.3100   -6.6100  -28.7120 C   0  0  0  0  0  0  0  0  0  0  0  0
    2.8300   -5.3340  -28.4540 C   0  0  0  0  0  3  0  0  0  0  0  0
    2.0060   -4.3230  -27.9430 C   0  0  0  0  0  3  0  0  0  0  0  0
   -1.0040   -4.0680  -26.1180 C   0  0  0  0  0  1  0  0  0  0  0  0
   -0.2400   -3.6510  -27.2470 O   0  0  0  0  0  0  0  0  0  0  0  0
   -0.3420   -8.8260  -25.9010 N   0  0  0  0  0  0  0  0  0  0  0  0
   -1.2250   -9.0840  -26.3220 H   0  0  0  0  0  0  0  0  0  0  0  0
   -0.5160   -7.7370  -25.0210 C   0  0  0  0  0  0  0  0  0  0  0  0
    0.5290   -6.9320  -24.7810 N   0  0  0  0  0  0  0  0  0  0  0  0
    0.4900   -6.2490  -23.6400 C   0  0  0  0  0  3  0  0  0  0  0  0
   -0.4370   -6.4020  -22.6930 N   0  0  0  0  0  0  0  0  0  0  0  0
   -1.5200   -7.1450  -22.9990 C   0  0  0  0  0  0  0  0  0  0  0  0
   -2.4730   -7.5250  -22.0530 C   0  0  0  0  0  0  0  0  0  0  0  0
   -3.6920   -8.1420  -22.3840 C   0  0  0  0  0  3  0  0  0  0  0  0
   -3.9480   -8.4720  -23.7030 C   0  0  0  0  0  3  0  0  0  0  0  0
   -2.9280   -8.3090  -24.6290 C   0  0  0  0  0  3  0  0  0  0  0  0
   -1.6950   -7.6970  -24.2620 C   0  0  0  0  0  0  0  0  0  0  0  0
   -1.9920   -7.7170  -20.6710 C   0  0  0  0  0  0  0  0  0  0  0  0
   -0.9480   -8.6060  -20.5890 N   0  0  0  0  0  0  0  0  0  0  0  0
   -2.4720   -7.1610  -19.6980 O   0  0  0  0  0  0  0  0  0  0  0  0
   -0.5270   -8.7880  -19.6890 H   0  0  0  0  0  0  0  0  0  0  0  0
   -0.5460   -9.0490  -21.4060 H   0  0  0  0  0  0  0  0  0  0  0  0
    0.3140   -9.9740  -23.8160 C   0  0  0  0  0  2  0  0  0  0  0  0
   -0.1570  -11.2230  -23.0480 C   0  0  0  0  0  2  0  0  0  0  0  0
   -1.6150  -11.2930  -22.6010 C   0  0  0  0  0  2  0  0  0  0  0  0
   -1.7500  -11.3920  -21.1940 O   0  0  0  0  0  0  0  0  0  0  0  0
   -1.2320  -12.1610  -20.8830 H   0  0  0  0  0  0  0  0  0  0  0  0
  1 37  1  1  0  0  0
  2  3  2  0  0  0  0
  2  7  1  0  0  0  0
  3  4  1  0  0  0  0
  4  5  2  0  0  0  0
  6  5  1  0  0  0  0
  6  1  1  0  0  0  0
  7  6  2  0  0  0  0
  8 10  1  0  0  0  0
  8 15  1  0  0  0  0
  9  8  2  0  0  0  0
 10  2  1  0  0  0  0
 11 10  1  0  0  0  0
 12 19  1  0  0  0  0
 13 12  2  0  0  0  0
 14 13  1  0  0  0  0
 15 14  2  0  0  0  0
 15 16  1  0  0  0  0
 16 17  2  0  0  0  0
 17 12  1  0  0  0  0
 19 18  1  0  0  0  0
 20  1  1  0  0  0  0
 20 22  1  0  0  0  0
 21 20  1  0  0  0  0
 22 23  2  0  0  0  0
 22 31  1  0  0  0  0
 23 24  1  0  0  0  0
 24 25  2  0  0  0  0
 26 25  1  0  0  0  0
 26 27  1  0  0  0  0
 27 32  1  0  0  0  0
 28 27  2  0  0  0  0
 29 28  1  0  0  0  0
 30 31  1  0  0  0  0
 30 29  2  0  0  0  0
 31 26  2  0  0  0  0
 32 33  1  0  0  0  0
 32 34  2  0  0  0  0
 33 35  1  0  0  0  0
 36 33  1  0  0  0  0
 37 38  1  0  0  0  0
 38 39  1  0  0  0  0
 39 40  1  0  0  0  0
 40 41  1  0  0  0  0
M  END
>  <minimizedAffinity>
-6.06523323

$$$$

 OpenBabel10152418433D

 41 44  0  0  1  0  0  0  0  0999 V2000
   -0.0920  -11.9380  -24.0390 C   0  0  2  0  0  3  0  0  0  0  0  0
    2.7450  -10.2860  -26.0410 C   0  0  0  0  0  0  0  0  0  0  0  0
    3.0600   -9.1940  -25.2320 C   0  0  0  0  0  3  0  0  0  0  0  0
    2.2610   -8.8860  -24.1370 C   0  0  0  0  0  3  0  0  0  0  0  0
    1.2020   -9.7240  -23.7860 C   0  0  0  0  0  3  0  0  0  0  0  0
    0.9300  -10.8950  -24.5130 C   0  0  0  0  0  0  0  0  0  0  0  0
    1.6730  -11.1210  -25.6960 C   0  0  0  0  0  3  0  0  0  0  0  0
    3.6220  -10.0940  -28.3870 C   0  0  0  0  0  0  0  0  0  0  0  0
    3.9970  -10.8170  -29.3100 O   0  0  0  0  0  0  0  0  0  0  0  0
    3.6230  -10.5690  -27.0980 N   0  0  0  0  0  0  0  0  0  0  0  0
    4.2910  -11.3160  -26.9500 H   0  0  0  0  0  0  0  0  0  0  0  0
    2.5850   -6.0120  -29.1880 C   0  0  0  0  0  0  0  0  0  0  0  0
    2.3650   -6.5700  -27.9290 C   0  0  0  0  0  3  0  0  0  0  0  0
    2.7680   -7.8790  -27.6550 C   0  0  0  0  0  3  0  0  0  0  0  0
    3.3900   -8.6460  -28.6470 C   0  0  0  0  0  0  0  0  0  0  0  0
    3.5810   -8.0930  -29.9210 C   0  0  0  0  0  3  0  0  0  0  0  0
    3.1840   -6.7770  -30.1890 C   0  0  0  0  0  3  0  0  0  0  0  0
    1.1980   -4.3060  -28.3600 C   0  0  0  0  0  1  0  0  0  0  0  0
    2.1170   -4.7380  -29.3610 O   0  0  0  0  0  0  0  0  0  0  0  0
   -1.4080  -11.7260  -24.6460 N   0  0  0  0  0  0  0  0  0  0  0  0
   -2.1730  -11.8920  -24.0060 H   0  0  0  0  0  0  0  0  0  0  0  0
   -1.5850  -10.4950  -25.3150 C   0  0  0  0  0  0  0  0  0  0  0  0
   -1.1850  -10.3940  -26.5900 N   0  0  0  0  0  0  0  0  0  0  0  0
   -0.9190   -9.1650  -27.0230 C   0  0  0  0  0  3  0  0  0  0  0  0
   -0.9110   -8.0740  -26.2550 N   0  0  0  0  0  0  0  0  0  0  0  0
   -1.4040   -8.1890  -25.0070 C   0  0  0  0  0  0  0  0  0  0  0  0
   -1.2970   -7.1780  -24.0500 C   0  0  0  0  0  0  0  0  0  0  0  0
   -1.9580   -7.2100  -22.8100 C   0  0  0  0  0  3  0  0  0  0  0  0
   -2.6960   -8.3280  -22.4640 C   0  0  0  0  0  3  0  0  0  0  0  0
   -2.6380   -9.4360  -23.2980 C   0  0  0  0  0  3  0  0  0  0  0  0
   -1.9440   -9.3820  -24.5410 C   0  0  0  0  0  0  0  0  0  0  0  0
   -0.1110   -6.3070  -24.1410 C   0  0  0  0  0  0  0  0  0  0  0  0
    0.1350   -5.6170  -22.9770 N   0  0  0  0  0  0  0  0  0  0  0  0
    0.5770   -6.1920  -25.1410 O   0  0  0  0  0  0  0  0  0  0  0  0
    0.9420   -5.0120  -22.9260 H   0  0  0  0  0  0  0  0  0  0  0  0
   -0.4320   -5.7330  -22.1470 H   0  0  0  0  0  0  0  0  0  0  0  0
   -0.2270  -12.0390  -22.5000 C   0  0  0  0  0  3  0  0  0  0  0  0
   -1.6090  -12.0390  -21.8220 C   0  0  0  0  0  3  0  0  0  0  0  0
   -1.6830  -11.7610  -20.3230 C   0  0  0  0  0  2  0  0  0  0  0  0
   -3.0010  -11.4890  -19.8820 O   0  0  0  0  0  0  0  0  0  0  0  0
   -3.3630  -10.7510  -20.4120 H   0  0  0  0  0  0  0  0  0  0  0  0
  1 37  1  1  0  0  0
  2  7  2  0  0  0  0
  2  3  1  0  0  0  0
  3  4  2  0  0  0  0
  4  5  1  0  0  0  0
  6  1  1  0  0  0  0
  6  5  2  0  0  0  0
  7  6  1  0  0  0  0
  8 10  1  0  0  0  0
  9  8  2  0  0  0  0
 10 11  1  0  0  0  0
 10  2  1  0  0  0  0
 12 13  1  0  0  0  0
 13 14  2  0  0  0  0
 15  8  1  0  0  0  0
 15 14  1  0  0  0  0
 16 15  2  0  0  0  0
 17 16  1  0  0  0  0
 17 12  2  0  0  0  0
 19 12  1  0  0  0  0
 19 18  1  0  0  0  0
 20  1  1  0  0  0  0
 20 21  1  0  0  0  0
 22 20  1  0  0  0  0
 22 31  1  0  0  0  0
 23 22  2  0  0  0  0
 24 23  1  0  0  0  0
 24 25  2  0  0  0  0
 25 26  1  0  0  0  0
 26 31  2  0  0  0  0
 26 27  1  0  0  0  0
 27 28  2  0  0  0  0
 28 29  1  0  0  0  0
 30 29  2  0  0  0  0
 31 30  1  0  0  0  0
 32 27  1  0  0  0  0
 32 33  1  0  0  0  0
 33 35  1  0  0  0  0
 33 36  1  0  0  0  0
 34 32  2  0  0  0  0
 37 38  2  0  0  0  0
 38 39  1  0  0  0  0
 39 40  1  0  0  0  0
 41 40  1  0  0  0  0
M  END
>  <minimizedAffinity>
-5.14586306

$$$$

 OpenBabel10152418433D

 41 44  0  0  1  0  0  0  0  0999 V2000
   -0.9920   -7.3660  -25.9160 C   0  0  2  0  0  3  0  0  0  0  0  0
    0.9320  -10.1860  -24.1460 C   0  0  0  0  0  0  0  0  0  0  0  0
    0.0170  -11.2350  -24.2140 C   0  0  0  0  0  3  0  0  0  0  0  0
   -1.2750  -11.0030  -24.6710 C   0  0  0  0  0  3  0  0  0  0  0  0
   -1.6300   -9.7430  -25.1560 C   0  0  0  0  0  3  0  0  0  0  0  0
   -0.6960   -8.6960  -25.2080 C   0  0  0  0  0  0  0  0  0  0  0  0
    0.5720   -8.9160  -24.6200 C   0  0  0  0  0  3  0  0  0  0  0  0
    3.0690  -11.5070  -24.1410 C   0  0  0  0  0  0  0  0  0  0  0  0
    3.8430  -12.0360  -23.3430 O   0  0  0  0  0  0  0  0  0  0  0  0
    2.2320  -10.5010  -23.7230 N   0  0  0  0  0  0  0  0  0  0  0  0
    2.5830  -10.0030  -22.9130 H   0  0  0  0  0  0  0  0  0  0  0  0
    3.5490  -11.9890  -28.3740 C   0  0  0  0  0  0  0  0  0  0  0  0
    4.6600  -11.9480  -27.5300 C   0  0  0  0  0  3  0  0  0  0  0  0
    4.4930  -11.8600  -26.1460 C   0  0  0  0  0  3  0  0  0  0  0  0
    3.2090  -11.8030  -25.5940 C   0  0  0  0  0  0  0  0  0  0  0  0
    2.0950  -11.8120  -26.4460 C   0  0  0  0  0  3  0  0  0  0  0  0
    2.2660  -11.9110  -27.8330 C   0  0  0  0  0  3  0  0  0  0  0  0
    4.3480  -10.8250  -30.2510 C   0  0  0  0  0  1  0  0  0  0  0  0
    3.8250  -12.0380  -29.7130 O   0  0  0  0  0  0  0  0  0  0  0  0
   -0.5700   -7.3920  -27.3200 N   0  0  0  0  0  0  0  0  0  0  0  0
   -1.3400   -7.3020  -27.9680 H   0  0  0  0  0  0  0  0  0  0  0  0
    0.4700   -6.5020  -27.6650 C   0  0  0  0  0  0  0  0  0  0  0  0
    0.1530   -5.3420  -28.2560 N   0  0  0  0  0  0  0  0  0  0  0  0
    1.1140   -4.7720  -28.9780 C   0  0  0  0  0  3  0  0  0  0  0  0
    2.2980   -5.3280  -29.2400 N   0  0  0  0  0  0  0  0  0  0  0  0
    2.6240   -6.4460  -28.5610 C   0  0  0  0  0  0  0  0  0  0  0  0
    3.7480   -7.2180  -28.8610 C   0  0  0  0  0  0  0  0  0  0  0  0
    4.1990   -8.2780  -28.0550 C   0  0  0  0  0  3  0  0  0  0  0  0
    3.4620   -8.6440  -26.9430 C   0  0  0  0  0  3  0  0  0  0  0  0
    2.2270   -8.0420  -26.7470 C   0  0  0  0  0  3  0  0  0  0  0  0
    1.7860   -6.9820  -27.5910 C   0  0  0  0  0  0  0  0  0  0  0  0
    4.1810   -7.2330  -30.2710 C   0  0  0  0  0  0  0  0  0  0  0  0
    3.6490   -8.2820  -30.9810 N   0  0  0  0  0  0  0  0  0  0  0  0
    4.9410   -6.4150  -30.7600 O   0  0  0  0  0  0  0  0  0  0  0  0
    3.8620   -8.3680  -31.9640 H   0  0  0  0  0  0  0  0  0  0  0  0
    3.0050   -8.9460  -30.5690 H   0  0  0  0  0  0  0  0  0  0  0  0
   -0.4000   -6.1240  -25.2070 C   0  0  0  0  0  3  0  0  0  0  0  0
   -0.7670   -5.7920  -23.7490 C   0  0  0  0  0  3  0  0  0  0  0  0
   -1.7060   -6.7380  -23.0040 C   0  0  0  0  0  2  0  0  0  0  0  0
   -1.0110   -7.7260  -22.2650 O   0  0  0  0  0  0  0  0  0  0  0  0
   -0.4090   -8.2050  -22.8700 H   0  0  0  0  0  0  0  0  0  0  0  0
  1  6  1  0  0  0  0
  1 37  1  1  0  0  0
  2 10  1  0  0  0  0
  3  2  1  0  0  0  0
  4  3  2  0  0  0  0
  5  4  1  0  0  0  0
  6  5  2  0  0  0  0
  6  7  1  0  0  0  0
  7  2  2  0  0  0  0
  8 10  1  0  0  0  0
  8  9  2  0  0  0  0
 10 11  1  0  0  0  0
 12 17  2  0  0  0  0
 12 13  1  0  0  0  0
 13 14  2  0  0  0  0
 14 15  1  0  0  0  0
 15  8  1  0  0  0  0
 16 15  2  0  0  0  0
 17 16  1  0  0  0  0
 18 19  1  0  0  0  0
 19 12  1  0  0  0  0
 20  1  1  0  0  0  0
 21 20  1  0  0  0  0
 22 31  1  0  0  0  0
 22 20  1  0  0  0  0
 23 22  2  0  0  0  0
 24 23  1  0  0  0  0
 25 24  2  0  0  0  0
 25 26  1  0  0  0  0
 26 31  1  0  0  0  0
 27 26  2  0  0  0  0
 27 28  1  0  0  0  0
 28 29  2  0  0  0  0
 29 30  1  0  0  0  0
 31 30  2  0  0  0  0
 32 27  1  0  0  0  0
 33 36  1  0  0  0  0
 33 32  1  0  0  0  0
 34 32  2  0  0  0  0
 35 33  1  0  0  0  0
 37 38  2  0  0  0  0
 38 39  1  0  0  0  0
 39 40  1  0  0  0  0
 41 40  1  0  0  0  0
M  END
>  <minimizedAffinity>
-4.97657108

$$$$

 OpenBabel10152418433D

 41 44  0  0  1  0  0  0  0  0999 V2000
   -0.2470   -9.9260  -26.6730 C   0  0  2  0  0  3  0  0  0  0  0  0
    1.4660   -6.6250  -27.6530 C   0  0  0  0  0  0  0  0  0  0  0  0
    0.3850   -5.7440  -27.6720 C   0  0  0  0  0  3  0  0  0  0  0  0
   -0.9110   -6.2290  -27.5400 C   0  0  0  0  0  3  0  0  0  0  0  0
   -1.1280   -7.5840  -27.2880 C   0  0  0  0  0  3  0  0  0  0  0  0
   -0.0540   -8.4780  -27.1470 C   0  0  0  0  0  0  0  0  0  0  0  0
    1.2470   -7.9890  -27.4120 C   0  0  0  0  0  3  0  0  0  0  0  0
    3.9630   -6.6780  -27.9250 C   0  0  0  0  0  0  0  0  0  0  0  0
    4.9740   -6.2160  -27.3970 O   0  0  0  0  0  0  0  0  0  0  0  0
    2.7480   -6.0630  -27.7410 N   0  0  0  0  0  0  0  0  0  0  0  0
    2.8300   -5.0770  -27.5240 H   0  0  0  0  0  0  0  0  0  0  0  0
    4.0250   -9.9220  -30.7280 C   0  0  0  0  0  0  0  0  0  0  0  0
    3.3140   -8.7530  -31.0050 C   0  0  0  0  0  3  0  0  0  0  0  0
    3.3550   -7.6740  -30.1180 C   0  0  0  0  0  3  0  0  0  0  0  0
    4.1030   -7.7600  -28.9390 C   0  0  0  0  0  0  0  0  0  0  0  0
    4.7890   -8.9470  -28.6480 C   0  0  0  0  0  3  0  0  0  0  0  0
    4.7550  -10.0240  -29.5440 C   0  0  0  0  0  3  0  0  0  0  0  0
    2.9670  -11.9500  -31.2600 C   0  0  0  0  0  1  0  0  0  0  0  0
    3.8860  -10.9290  -31.6430 O   0  0  0  0  0  0  0  0  0  0  0  0
   -1.2830  -10.0260  -25.6410 N   0  0  0  0  0  0  0  0  0  0  0  0
   -2.0130  -10.6860  -25.8730 H   0  0  0  0  0  0  0  0  0  0  0  0
   -0.8200  -10.2480  -24.3260 C   0  0  0  0  0  0  0  0  0  0  0  0
   -0.6820  -11.5110  -23.8980 N   0  0  0  0  0  0  0  0  0  0  0  0
   -0.7180  -11.6880  -22.5800 C   0  0  0  0  0  3  0  0  0  0  0  0
   -0.9960  -10.7320  -21.6920 N   0  0  0  0  0  0  0  0  0  0  0  0
   -1.0380   -9.4620  -22.1400 C   0  0  0  0  0  0  0  0  0  0  0  0
   -1.4840   -8.3940  -21.3580 C   0  0  0  0  0  0  0  0  0  0  0  0
   -1.3670   -7.0480  -21.7440 C   0  0  0  0  0  3  0  0  0  0  0  0
   -0.8590   -6.7430  -22.9950 C   0  0  0  0  0  3  0  0  0  0  0  0
   -0.6170   -7.7870  -23.8760 C   0  0  0  0  0  3  0  0  0  0  0  0
   -0.7620   -9.1440  -23.4640 C   0  0  0  0  0  0  0  0  0  0  0  0
   -2.5120   -8.7010  -20.3450 C   0  0  0  0  0  0  0  0  0  0  0  0
   -2.8620   -7.6070  -19.5920 N   0  0  0  0  0  0  0  0  0  0  0  0
   -2.9950   -9.8080  -20.1780 O   0  0  0  0  0  0  0  0  0  0  0  0
   -3.5790   -7.7040  -18.8870 H   0  0  0  0  0  0  0  0  0  0  0  0
   -2.4660   -6.6880  -19.7510 H   0  0  0  0  0  0  0  0  0  0  0  0
    1.0530  -10.6130  -26.1890 C   0  0  0  0  0  3  0  0  0  0  0  0
    1.9650  -11.3680  -27.1730 C   0  0  0  0  0  3  0  0  0  0  0  0
    3.2990  -11.9040  -26.6590 C   0  0  0  0  0  2  0  0  0  0  0  0
    4.0690  -10.9130  -26.0030 O   0  0  0  0  0  0  0  0  0  0  0  0
    4.1860  -10.1540  -26.6090 H   0  0  0  0  0  0  0  0  0  0  0  0
  1 37  1  1  0  0  0
  1 20  1  0  0  0  0
  2  7  1  0  0  0  0
  3  2  2  0  0  0  0
  3  4  1  0  0  0  0
  4  5  2  0  0  0  0
  5  6  1  0  0  0  0
  6  1  1  0  0  0  0
  7  6  2  0  0  0  0
  8 10  1  0  0  0  0
  8  9  2  0  0  0  0
 10  2  1  0  0  0  0
 10 11  1  0  0  0  0
 12 17  1  0  0  0  0
 13 12  2  0  0  0  0
 13 14  1  0  0  0  0
 14 15  2  0  0  0  0
 15 16  1  0  0  0  0
 15  8  1  0  0  0  0
 17 16  2  0  0  0  0
 19 18  1  0  0  0  0
 19 12  1  0  0  0  0
 20 22  1  0  0  0  0
 21 20  1  0  0  0  0
 22 23  2  0  0  0  0
 22 31  1  0  0  0  0
 23 24  1  0  0  0  0
 24 25  2  0  0  0  0
 26 25  1  0  0  0  0
 26 27  1  0  0  0  0
 27 32  1  0  0  0  0
 28 27  2  0  0  0  0
 29 28  1  0  0  0  0
 30 31  1  0  0  0  0
 30 29  2  0  0  0  0
 31 26  2  0  0  0  0
 32 34  2  0  0  0  0
 32 33  1  0  0  0  0
 33 35  1  0  0  0  0
 36 33  1  0  0  0  0
 38 39  1  0  0  0  0
 38 37  2  0  0  0  0
 39 40  1  0  0  0  0
 41 40  1  0  0  0  0
M  END
>  <minimizedAffinity>
-4.87594843

$$$$
