
 OpenBabel10152418433D

 41 44  0  0  1  0  0  0  0  0999 V2000
   -0.2470   -9.9260  -26.6730 C   0  0  2  0  0  3  0  0  0  0  0  0
    1.4660   -6.6250  -27.6530 C   0  0  0  0  0  0  0  0  0  0  0  0
    0.3850   -5.7440  -27.6720 C   0  0  0  0  0  3  0  0  0  0  0  0
   -0.9110   -6.2290  -27.5400 C   0  0  0  0  0  3  0  0  0  0  0  0
   -1.1280   -7.5840  -27.2880 C   0  0  0  0  0  3  0  0  0  0  0  0
   -0.0540   -8.4780  -27.1470 C   0  0  0  0  0  0  0  0  0  0  0  0
    1.2470   -7.9890  -27.4120 C   0  0  0  0  0  3  0  0  0  0  0  0
    3.9630   -6.6780  -27.9250 C   0  0  0  0  0  0  0  0  0  0  0  0
    4.9740   -6.2160  -27.3970 O   0  0  0  0  0  0  0  0  0  0  0  0
    2.7480   -6.0630  -27.7410 N   0  0  0  0  0  0  0  0  0  0  0  0
    2.8300   -5.0770  -27.5240 H   0  0  0  0  0  0  0  0  0  0  0  0
    4.0250   -9.9220  -30.7280 C   0  0  0  0  0  0  0  0  0  0  0  0
    3.3140   -8.7530  -31.0050 C   0  0  0  0  0  3  0  0  0  0  0  0
    3.3550   -7.6740  -30.1180 C   0  0  0  0  0  3  0  0  0  0  0  0
    4.1030   -7.7600  -28.9390 C   0  0  0  0  0  0  0  0  0  0  0  0
    4.7890   -8.9470  -28.6480 C   0  0  0  0  0  3  0  0  0  0  0  0
    4.7550  -10.0240  -29.5440 C   0  0  0  0  0  3  0  0  0  0  0  0
    2.9670  -11.9500  -31.2600 C   0  0  0  0  0  1  0  0  0  0  0  0
    3.8860  -10.9290  -31.6430 O   0  0  0  0  0  0  0  0  0  0  0  0
   -1.2830  -10.0260  -25.6410 N   0  0  0  0  0  0  0  0  0  0  0  0
   -2.0130  -10.6860  -25.8730 H   0  0  0  0  0  0  0  0  0  0  0  0
   -0.8200  -10.2480  -24.3260 C   0  0  0  0  0  0  0  0  0  0  0  0
   -0.6820  -11.5110  -23.8980 N   0  0  0  0  0  0  0  0  0  0  0  0
   -0.7180  -11.6880  -22.5800 C   0  0  0  0  0  3  0  0  0  0  0  0
   -0.9960  -10.7320  -21.6920 N   0  0  0  0  0  0  0  0  0  0  0  0
   -1.0380   -9.4620  -22.1400 C   0  0  0  0  0  0  0  0  0  0  0  0
   -1.4840   -8.3940  -21.3580 C   0  0  0  0  0  0  0  0  0  0  0  0
   -1.3670   -7.0480  -21.7440 C   0  0  0  0  0  3  0  0  0  0  0  0
   -0.8590   -6.7430  -22.9950 C   0  0  0  0  0  3  0  0  0  0  0  0
   -0.6170   -7.7870  -23.8760 C   0  0  0  0  0  3  0  0  0  0  0  0
   -0.7620   -9.1440  -23.4640 C   0  0  0  0  0  0  0  0  0  0  0  0
   -2.5120   -8.7010  -20.3450 C   0  0  0  0  0  0  0  0  0  0  0  0
   -2.8620   -7.6070  -19.5920 N   0  0  0  0  0  0  0  0  0  0  0  0
   -2.9950   -9.8080  -20.1780 O   0  0  0  0  0  0  0  0  0  0  0  0
   -3.5790   -7.7040  -18.8870 H   0  0  0  0  0  0  0  0  0  0  0  0
   -2.4660   -6.6880  -19.7510 H   0  0  0  0  0  0  0  0  0  0  0  0
    1.0530  -10.6130  -26.1890 C   0  0  0  0  0  3  0  0  0  0  0  0
    1.9650  -11.3680  -27.1730 C   0  0  0  0  0  3  0  0  0  0  0  0
    3.2990  -11.9040  -26.6590 C   0  0  0  0  0  2  0  0  0  0  0  0
    4.0690  -10.9130  -26.0030 O   0  0  0  0  0  0  0  0  0  0  0  0
    4.1860  -10.1540  -26.6090 H   0  0  0  0  0  0  0  0  0  0  0  0
  1 37  1  1  0  0  0
  1 20  1  0  0  0  0
  2  7  1  0  0  0  0
  3  2  2  0  0  0  0
  3  4  1  0  0  0  0
  4  5  2  0  0  0  0
  5  6  1  0  0  0  0
  6  1  1  0  0  0  0
  7  6  2  0  0  0  0
  8 10  1  0  0  0  0
  8  9  2  0  0  0  0
 10  2  1  0  0  0  0
 10 11  1  0  0  0  0
 12 17  1  0  0  0  0
 13 12  2  0  0  0  0
 13 14  1  0  0  0  0
 14 15  2  0  0  0  0
 15 16  1  0  0  0  0
 15  8  1  0  0  0  0
 17 16  2  0  0  0  0
 19 18  1  0  0  0  0
 19 12  1  0  0  0  0
 20 22  1  0  0  0  0
 21 20  1  0  0  0  0
 22 23  2  0  0  0  0
 22 31  1  0  0  0  0
 23 24  1  0  0  0  0
 24 25  2  0  0  0  0
 26 25  1  0  0  0  0
 26 27  1  0  0  0  0
 27 32  1  0  0  0  0
 28 27  2  0  0  0  0
 29 28  1  0  0  0  0
 30 31  1  0  0  0  0
 30 29  2  0  0  0  0
 31 26  2  0  0  0  0
 32 34  2  0  0  0  0
 32 33  1  0  0  0  0
 33 35  1  0  0  0  0
 36 33  1  0  0  0  0
 38 39  1  0  0  0  0
 38 37  2  0  0  0  0
 39 40  1  0  0  0  0
 41 40  1  0  0  0  0
M  END
>  <minimizedAffinity>
-4.87594843

$$$$
