
 OpenBabel10152418433D

 41 44  0  0  1  0  0  0  0  0999 V2000
   -0.0920  -11.9380  -24.0390 C   0  0  2  0  0  3  0  0  0  0  0  0
    2.7450  -10.2860  -26.0410 C   0  0  0  0  0  0  0  0  0  0  0  0
    3.0600   -9.1940  -25.2320 C   0  0  0  0  0  3  0  0  0  0  0  0
    2.2610   -8.8860  -24.1370 C   0  0  0  0  0  3  0  0  0  0  0  0
    1.2020   -9.7240  -23.7860 C   0  0  0  0  0  3  0  0  0  0  0  0
    0.9300  -10.8950  -24.5130 C   0  0  0  0  0  0  0  0  0  0  0  0
    1.6730  -11.1210  -25.6960 C   0  0  0  0  0  3  0  0  0  0  0  0
    3.6220  -10.0940  -28.3870 C   0  0  0  0  0  0  0  0  0  0  0  0
    3.9970  -10.8170  -29.3100 O   0  0  0  0  0  0  0  0  0  0  0  0
    3.6230  -10.5690  -27.0980 N   0  0  0  0  0  0  0  0  0  0  0  0
    4.2910  -11.3160  -26.9500 H   0  0  0  0  0  0  0  0  0  0  0  0
    2.5850   -6.0120  -29.1880 C   0  0  0  0  0  0  0  0  0  0  0  0
    2.3650   -6.5700  -27.9290 C   0  0  0  0  0  3  0  0  0  0  0  0
    2.7680   -7.8790  -27.6550 C   0  0  0  0  0  3  0  0  0  0  0  0
    3.3900   -8.6460  -28.6470 C   0  0  0  0  0  0  0  0  0  0  0  0
    3.5810   -8.0930  -29.9210 C   0  0  0  0  0  3  0  0  0  0  0  0
    3.1840   -6.7770  -30.1890 C   0  0  0  0  0  3  0  0  0  0  0  0
    1.1980   -4.3060  -28.3600 C   0  0  0  0  0  1  0  0  0  0  0  0
    2.1170   -4.7380  -29.3610 O   0  0  0  0  0  0  0  0  0  0  0  0
   -1.4080  -11.7260  -24.6460 N   0  0  0  0  0  0  0  0  0  0  0  0
   -2.1730  -11.8920  -24.0060 H   0  0  0  0  0  0  0  0  0  0  0  0
   -1.5850  -10.4950  -25.3150 C   0  0  0  0  0  0  0  0  0  0  0  0
   -1.1850  -10.3940  -26.5900 N   0  0  0  0  0  0  0  0  0  0  0  0
   -0.9190   -9.1650  -27.0230 C   0  0  0  0  0  3  0  0  0  0  0  0
   -0.9110   -8.0740  -26.2550 N   0  0  0  0  0  0  0  0  0  0  0  0
   -1.4040   -8.1890  -25.0070 C   0  0  0  0  0  0  0  0  0  0  0  0
   -1.2970   -7.1780  -24.0500 C   0  0  0  0  0  0  0  0  0  0  0  0
   -1.9580   -7.2100  -22.8100 C   0  0  0  0  0  3  0  0  0  0  0  0
   -2.6960   -8.3280  -22.4640 C   0  0  0  0  0  3  0  0  0  0  0  0
   -2.6380   -9.4360  -23.2980 C   0  0  0  0  0  3  0  0  0  0  0  0
   -1.9440   -9.3820  -24.5410 C   0  0  0  0  0  0  0  0  0  0  0  0
   -0.1110   -6.3070  -24.1410 C   0  0  0  0  0  0  0  0  0  0  0  0
    0.1350   -5.6170  -22.9770 N   0  0  0  0  0  0  0  0  0  0  0  0
    0.5770   -6.1920  -25.1410 O   0  0  0  0  0  0  0  0  0  0  0  0
    0.9420   -5.0120  -22.9260 H   0  0  0  0  0  0  0  0  0  0  0  0
   -0.4320   -5.7330  -22.1470 H   0  0  0  0  0  0  0  0  0  0  0  0
   -0.2270  -12.0390  -22.5000 C   0  0  0  0  0  3  0  0  0  0  0  0
   -1.6090  -12.0390  -21.8220 C   0  0  0  0  0  3  0  0  0  0  0  0
   -1.6830  -11.7610  -20.3230 C   0  0  0  0  0  2  0  0  0  0  0  0
   -3.0010  -11.4890  -19.8820 O   0  0  0  0  0  0  0  0  0  0  0  0
   -3.3630  -10.7510  -20.4120 H   0  0  0  0  0  0  0  0  0  0  0  0
  1 37  1  1  0  0  0
  2  7  2  0  0  0  0
  2  3  1  0  0  0  0
  3  4  2  0  0  0  0
  4  5  1  0  0  0  0
  6  1  1  0  0  0  0
  6  5  2  0  0  0  0
  7  6  1  0  0  0  0
  8 10  1  0  0  0  0
  9  8  2  0  0  0  0
 10 11  1  0  0  0  0
 10  2  1  0  0  0  0
 12 13  1  0  0  0  0
 13 14  2  0  0  0  0
 15  8  1  0  0  0  0
 15 14  1  0  0  0  0
 16 15  2  0  0  0  0
 17 16  1  0  0  0  0
 17 12  2  0  0  0  0
 19 12  1  0  0  0  0
 19 18  1  0  0  0  0
 20  1  1  0  0  0  0
 20 21  1  0  0  0  0
 22 20  1  0  0  0  0
 22 31  1  0  0  0  0
 23 22  2  0  0  0  0
 24 23  1  0  0  0  0
 24 25  2  0  0  0  0
 25 26  1  0  0  0  0
 26 31  2  0  0  0  0
 26 27  1  0  0  0  0
 27 28  2  0  0  0  0
 28 29  1  0  0  0  0
 30 29  2  0  0  0  0
 31 30  1  0  0  0  0
 32 27  1  0  0  0  0
 32 33  1  0  0  0  0
 33 35  1  0  0  0  0
 33 36  1  0  0  0  0
 34 32  2  0  0  0  0
 37 38  2  0  0  0  0
 38 39  1  0  0  0  0
 39 40  1  0  0  0  0
 41 40  1  0  0  0  0
M  END
>  <minimizedAffinity>
-5.14586306

$$$$
