
 OpenBabel10152418433D

 41 44  0  0  1  0  0  0  0  0999 V2000
   -1.0750   -6.4280  -25.5110 C   0  0  2  0  0  3  0  0  0  0  0  0
   -1.5830   -8.9250  -22.6320 C   0  0  0  0  0  0  0  0  0  0  0  0
   -2.9740   -8.9670  -22.5410 C   0  0  0  0  0  3  0  0  0  0  0  0
   -3.7480   -8.0770  -23.2770 C   0  0  0  0  0  3  0  0  0  0  0  0
   -3.1400   -7.2080  -24.1840 C   0  0  0  0  0  3  0  0  0  0  0  0
   -1.7510   -7.2220  -24.3840 C   0  0  0  0  0  0  0  0  0  0  0  0
   -0.9720   -8.0430  -23.5340 C   0  0  0  0  0  3  0  0  0  0  0  0
   -0.5930  -11.1940  -22.2070 C   0  0  0  0  0  0  0  0  0  0  0  0
   -0.5280  -12.0370  -21.3120 O   0  0  0  0  0  0  0  0  0  0  0  0
   -0.8680   -9.8840  -21.9000 N   0  0  0  0  0  0  0  0  0  0  0  0
   -0.6040   -9.6340  -20.9540 H   0  0  0  0  0  0  0  0  0  0  0  0
    0.8340  -11.8970  -26.1890 C   0  0  0  0  0  0  0  0  0  0  0  0
    1.6870  -12.0250  -25.0920 C   0  0  0  0  0  3  0  0  0  0  0  0
    1.1990  -11.8620  -23.7930 C   0  0  0  0  0  3  0  0  0  0  0  0
   -0.1510  -11.5590  -23.5820 C   0  0  0  0  0  0  0  0  0  0  0  0
   -0.9990  -11.3990  -24.6870 C   0  0  0  0  0  3  0  0  0  0  0  0
   -0.5080  -11.5730  -25.9870 C   0  0  0  0  0  3  0  0  0  0  0  0
    2.8480  -12.0090  -27.3930 C   0  0  0  0  0  1  0  0  0  0  0  0
    1.4220  -12.0380  -27.4160 O   0  0  0  0  0  0  0  0  0  0  0  0
   -0.1900   -7.2730  -26.3180 N   0  0  0  0  0  0  0  0  0  0  0  0
   -0.6910   -7.8890  -26.9440 H   0  0  0  0  0  0  0  0  0  0  0  0
    0.8400   -6.6000  -27.0090 C   0  0  0  0  0  0  0  0  0  0  0  0
    0.5090   -5.6030  -27.8430 N   0  0  0  0  0  0  0  0  0  0  0  0
    1.3900   -5.3270  -28.8010 C   0  0  0  0  0  3  0  0  0  0  0  0
    2.4910   -6.0370  -29.0490 N   0  0  0  0  0  0  0  0  0  0  0  0
    2.8450   -6.9710  -28.1430 C   0  0  0  0  0  0  0  0  0  0  0  0
    3.8690   -7.8940  -28.3630 C   0  0  0  0  0  0  0  0  0  0  0  0
    4.3680   -8.7510  -27.3670 C   0  0  0  0  0  3  0  0  0  0  0  0
    3.7760   -8.7540  -26.1170 C   0  0  0  0  0  3  0  0  0  0  0  0
    2.6170   -8.0110  -25.9380 C   0  0  0  0  0  3  0  0  0  0  0  0
    2.1230   -7.1640  -26.9720 C   0  0  0  0  0  0  0  0  0  0  0  0
    4.0970   -8.3060  -29.7610 C   0  0  0  0  0  0  0  0  0  0  0  0
    4.7670   -7.3570  -30.4950 N   0  0  0  0  0  0  0  0  0  0  0  0
    3.7240   -9.3680  -30.2290 O   0  0  0  0  0  0  0  0  0  0  0  0
    4.9980   -7.5520  -31.4580 H   0  0  0  0  0  0  0  0  0  0  0  0
    5.0880   -6.4850  -30.0920 H   0  0  0  0  0  0  0  0  0  0  0  0
   -0.3130   -5.1680  -25.0310 C   0  0  0  0  0  2  0  0  0  0  0  0
   -1.0670   -3.8790  -24.6580 C   0  0  0  0  0  2  0  0  0  0  0  0
   -1.0900   -2.7340  -25.6680 C   0  0  0  0  0  2  0  0  0  0  0  0
   -0.5410   -3.1010  -26.9220 O   0  0  0  0  0  0  0  0  0  0  0  0
    0.3620   -3.4490  -26.7790 H   0  0  0  0  0  0  0  0  0  0  0  0
  1 37  1  1  0  0  0
  1  6  1  0  0  0  0
  2  3  1  0  0  0  0
  2 10  1  0  0  0  0
  4  3  2  0  0  0  0
  5  4  1  0  0  0  0
  6  5  2  0  0  0  0
  6  7  1  0  0  0  0
  7  2  2  0  0  0  0
  8 10  1  0  0  0  0
  8  9  2  0  0  0  0
 10 11  1  0  0  0  0
 12 17  2  0  0  0  0
 12 13  1  0  0  0  0
 13 14  2  0  0  0  0
 14 15  1  0  0  0  0
 15  8  1  0  0  0  0
 16 15  2  0  0  0  0
 17 16  1  0  0  0  0
 19 18  1  0  0  0  0
 19 12  1  0  0  0  0
 20  1  1  0  0  0  0
 21 20  1  0  0  0  0
 22 31  1  0  0  0  0
 22 20  1  0  0  0  0
 23 22  2  0  0  0  0
 24 23  1  0  0  0  0
 25 24  2  0  0  0  0
 25 26  1  0  0  0  0
 26 31  1  0  0  0  0
 27 26  2  0  0  0  0
 27 28  1  0  0  0  0
 28 29  2  0  0  0  0
 29 30  1  0  0  0  0
 31 30  2  0  0  0  0
 32 27  1  0  0  0  0
 33 36  1  0  0  0  0
 33 32  1  0  0  0  0
 34 32  2  0  0  0  0
 35 33  1  0  0  0  0
 37 38  1  0  0  0  0
 39 38  1  0  0  0  0
 40 41  1  0  0  0  0
 40 39  1  0  0  0  0
M  END
>  <minimizedAffinity>
-7.427948

$$$$
