
 OpenBabel10152418433D

 41 44  0  0  1  0  0  0  0  0999 V2000
    1.0800  -10.7720  -25.7460 C   0  0  2  0  0  3  0  0  0  0  0  0
    4.0470   -9.3140  -27.7090 C   0  0  0  0  0  0  0  0  0  0  0  0
    4.9740  -10.3520  -27.6270 C   0  0  0  0  0  3  0  0  0  0  0  0
    4.7230  -11.4460  -26.8070 C   0  0  0  0  0  3  0  0  0  0  0  0
    3.5010  -11.5570  -26.1430 C   0  0  0  0  0  3  0  0  0  0  0  0
    2.5000  -10.5840  -26.2970 C   0  0  0  0  0  0  0  0  0  0  0  0
    2.8240   -9.4180  -27.0310 C   0  0  0  0  0  3  0  0  0  0  0  0
    3.4960   -7.3730  -29.2060 C   0  0  0  0  0  0  0  0  0  0  0  0
    3.7510   -6.9590  -30.3360 O   0  0  0  0  0  0  0  0  0  0  0  0
    4.3410   -8.2650  -28.5930 N   0  0  0  0  0  0  0  0  0  0  0  0
    5.2940   -8.2100  -28.9350 H   0  0  0  0  0  0  0  0  0  0  0  0
    0.1300   -5.5360  -27.2880 C   0  0  0  0  0  0  0  0  0  0  0  0
    0.1740   -6.9170  -27.4830 C   0  0  0  0  0  3  0  0  0  0  0  0
    1.3030   -7.5160  -28.0460 C   0  0  0  0  0  3  0  0  0  0  0  0
    2.3980   -6.7330  -28.4280 C   0  0  0  0  0  0  0  0  0  0  0  0
    2.3380   -5.3430  -28.2600 C   0  0  0  0  0  3  0  0  0  0  0  0
    1.2080   -4.7470  -27.6860 C   0  0  0  0  0  3  0  0  0  0  0  0
   -0.9720   -3.6880  -26.3450 C   0  0  0  0  0  1  0  0  0  0  0  0
   -1.0370   -5.0500  -26.7640 O   0  0  0  0  0  0  0  0  0  0  0  0
    1.0660  -11.6250  -24.5550 N   0  0  0  0  0  0  0  0  0  0  0  0
    1.9830  -11.9660  -24.2990 H   0  0  0  0  0  0  0  0  0  0  0  0
    0.4060  -11.0940  -23.4260 C   0  0  0  0  0  0  0  0  0  0  0  0
   -0.2150  -11.9370  -22.5890 N   0  0  0  0  0  0  0  0  0  0  0  0
   -1.1900  -11.4140  -21.8500 C   0  0  0  0  0  3  0  0  0  0  0  0
   -1.6530  -10.1690  -21.9740 N   0  0  0  0  0  0  0  0  0  0  0  0
   -0.9520   -9.3210  -22.7520 C   0  0  0  0  0  0  0  0  0  0  0  0
   -1.4160   -8.0510  -23.1020 C   0  0  0  0  0  0  0  0  0  0  0  0
   -0.6270   -7.0910  -23.7590 C   0  0  0  0  0  3  0  0  0  0  0  0
    0.6540   -7.4260  -24.1610 C   0  0  0  0  0  3  0  0  0  0  0  0
    1.0600   -8.7460  -24.0250 C   0  0  0  0  0  3  0  0  0  0  0  0
    0.2320   -9.7040  -23.3710 C   0  0  0  0  0  0  0  0  0  0  0  0
   -2.8780   -7.8900  -23.2140 C   0  0  0  0  0  0  0  0  0  0  0  0
   -3.5060   -7.8580  -21.9930 N   0  0  0  0  0  0  0  0  0  0  0  0
   -3.4760   -7.8070  -24.2730 O   0  0  0  0  0  0  0  0  0  0  0  0
   -4.5060   -7.7230  -21.9580 H   0  0  0  0  0  0  0  0  0  0  0  0
   -2.9980   -7.9100  -21.1180 H   0  0  0  0  0  0  0  0  0  0  0  0
    0.0610  -11.2970  -26.7870 C   0  0  0  0  0  2  0  0  0  0  0  0
   -1.3130  -10.6260  -26.9620 C   0  0  0  0  0  2  0  0  0  0  0  0
   -2.2790  -10.6290  -25.7800 C   0  0  0  0  0  2  0  0  0  0  0  0
   -2.1400  -11.7800  -24.9650 O   0  0  0  0  0  0  0  0  0  0  0  0
   -2.2410  -12.5750  -25.5260 H   0  0  0  0  0  0  0  0  0  0  0  0
  1 37  1  6  0  0  0
  1 20  1  0  0  0  0
  2  3  2  0  0  0  0
  2  7  1  0  0  0  0
  3  4  1  0  0  0  0
  4  5  2  0  0  0  0
  6  5  1  0  0  0  0
  6  1  1  0  0  0  0
  7  6  2  0  0  0  0
  8 10  1  0  0  0  0
  8 15  1  0  0  0  0
  9  8  2  0  0  0  0
 10  2  1  0  0  0  0
 11 10  1  0  0  0  0
 12 19  1  0  0  0  0
 13 12  1  0  0  0  0
 14 13  2  0  0  0  0
 15 16  2  0  0  0  0
 15 14  1  0  0  0  0
 16 17  1  0  0  0  0
 17 12  2  0  0  0  0
 19 18  1  0  0  0  0
 20 21  1  0  0  0  0
 20 22  1  0  0  0  0
 22 31  2  0  0  0  0
 22 23  1  0  0  0  0
 23 24  2  0  0  0  0
 25 24  1  0  0  0  0
 26 25  2  0  0  0  0
 27 26  1  0  0  0  0
 28 27  2  0  0  0  0
 29 30  2  0  0  0  0
 29 28  1  0  0  0  0
 30 31  1  0  0  0  0
 31 26  1  0  0  0  0
 32 27  1  0  0  0  0
 32 33  1  0  0  0  0
 33 35  1  0  0  0  0
 33 36  1  0  0  0  0
 34 32  2  0  0  0  0
 38 37  1  0  0  0  0
 38 39  1  0  0  0  0
 39 40  1  0  0  0  0
 41 40  1  0  0  0  0
M  END
>  <minimizedAffinity>
-7.0470562

$$$$
