REMARK  Name = 
REMARK  12 active torsions:
REMARK  status: ('A' for Active; 'I' for Inactive)
REMARK    1  A    between atoms: C_1  and  O_2
REMARK    2  A    between atoms: O_2  and  C_3
REMARK    3  A    between atoms: C_6  and  C_7
REMARK    4  A    between atoms: N_9  and  C_10
REMARK    5  A    between atoms: C_14  and  C_15
REMARK    6  A    between atoms: C_15  and  C_16
REMARK    7  A    between atoms: C_15  and  N_20
REMARK    8  A    between atoms: C_16  and  C_17
REMARK    9  A    between atoms: C_17  and  C_18
REMARK   10  A    between atoms: C_18  and  O_19
REMARK   11  A    between atoms: N_20  and  C_21
REMARK   12  A    between atoms: C_26  and  C_27
REMARK                            x       y       z     vdW  Elec       q    Type
REMARK                         _______ _______ _______ _____ _____    ______ ____
ROOT
ATOM      1  C   UNL     1       6.343   2.767  -2.135  0.00  0.00    +0.102 C 
ENDROOT
BRANCH   1   6
ATOM      2  C   UNL     1       4.563   5.084   0.365  0.00  0.00    +0.034 A 
ATOM      3  C   UNL     1       5.398   4.989   1.478  0.00  0.00    +0.023 A 
ATOM      4  C   UNL     1       6.432   4.060   1.495  0.00  0.00    +0.002 A 
ATOM      5  C   UNL     1       6.700   3.291   0.362  0.00  0.00    +0.005 A 
ATOM      6  C   UNL     1       5.950   3.446  -0.815  0.00  0.00    -0.026 A 
ATOM      7  C   UNL     1       4.824   4.302  -0.769  0.00  0.00    +0.028 A 
BRANCH   2  10
ATOM      8  C   UNL     1       2.356   6.119  -0.243  0.00  0.00    +0.248 C 
ATOM      9  O   UNL     1       1.899   7.195  -0.627  0.00  0.00    -0.270 OA
ATOM     10  N   UNL     1       3.572   6.076   0.395  0.00  0.00    -0.281 N 
ATOM     11  H   UNL     1       3.812   6.948   0.852  0.00  0.00    +0.155 HD
BRANCH   8  15
ATOM     12  C   UNL     1      -0.419   2.851  -0.164  0.00  0.00    +0.120 A 
ATOM     13  C   UNL     1      -0.471   3.807  -1.179  0.00  0.00    +0.046 A 
ATOM     14  C   UNL     1       0.479   4.830  -1.237  0.00  0.00    +0.016 A 
ATOM     15  C   UNL     1       1.487   4.909  -0.270  0.00  0.00    +0.037 A 
ATOM     16  C   UNL     1       1.518   3.966   0.767  0.00  0.00    +0.016 A 
ATOM     17  C   UNL     1       0.570   2.936   0.816  0.00  0.00    +0.046 A 
BRANCH  12  19
ATOM     18  C   UNL     1      -1.019   0.620   0.259  0.00  0.00    +0.277 C 
ATOM     19  O   UNL     1      -1.418   1.917  -0.179  0.00  0.00    -0.495 OA
ENDBRANCH  12  19
ENDBRANCH   8  15
ENDBRANCH   2  10
ENDBRANCH   1   6
BRANCH   1  20
ATOM     20  N   UNL     1       6.298   1.306  -2.030  0.00  0.00    -0.322 N 
ATOM     21  H   UNL     1       6.872   0.943  -1.281  0.00  0.00    +0.148 HD
BRANCH  20  22
ATOM     22  C   UNL     1       5.009   0.733  -1.984  0.00  0.00    +0.130 A 
ATOM     23  N   UNL     1       3.989   1.401  -2.541  0.00  0.00    -0.220 NA
ATOM     24  C   UNL     1       2.776   1.103  -2.083  0.00  0.00    +0.223 A 
ATOM     25  N   UNL     1       2.531   0.293  -1.052  0.00  0.00    -0.235 NA
ATOM     26  C   UNL     1       3.561  -0.433  -0.574  0.00  0.00    +0.088 A 
ATOM     27  C   UNL     1       3.482  -1.183   0.601  0.00  0.00    +0.063 A 
ATOM     28  C   UNL     1       4.480  -2.082   1.016  0.00  0.00    +0.015 A 
ATOM     29  C   UNL     1       5.646  -2.188   0.279  0.00  0.00    +0.002 A 
ATOM     30  C   UNL     1       5.845  -1.295  -0.765  0.00  0.00    +0.013 A 
ATOM     31  C   UNL     1       4.823  -0.381  -1.153  0.00  0.00    +0.041 A 
BRANCH  27  32
ATOM     32  C   UNL     1       2.577  -0.675   1.649  0.00  0.00    +0.244 C 
ATOM     33  N   UNL     1       3.208   0.160   2.540  0.00  0.00    -0.325 N 
ATOM     34  O   UNL     1       1.397  -0.969   1.733  0.00  0.00    -0.270 OA
ATOM     35  H   UNL     1       2.670   0.584   3.282  0.00  0.00    +0.145 HD
ATOM     36  H   UNL     1       4.185   0.411   2.451  0.00  0.00    +0.145 HD
ENDBRANCH  27  32
ENDBRANCH  20  22
ENDBRANCH   1  20
BRANCH   1  37
ATOM     37  C   UNL     1       7.714   3.217  -2.696  0.00  0.00    +0.029 C 
BRANCH  37  38
ATOM     38  C   UNL     1       9.021   2.902  -1.946  0.00  0.00    +0.030 C 
BRANCH  38  39
ATOM     39  C   UNL     1       9.325   1.447  -1.598  0.00  0.00    +0.156 C 
BRANCH  39  40
ATOM     40  O   UNL     1       9.017   0.557  -2.656  0.00  0.00    -0.395 OA
ATOM     41  H   UNL     1       8.082   0.687  -2.913  0.00  0.00    +0.209 HD
ENDBRANCH  39  40
ENDBRANCH  38  39
ENDBRANCH  37  38
ENDBRANCH   1  37
TORSDOF 11
