
 OpenBabel10152418513D

 39 42  0  0  1  0  0  0  0  0999 V2000
    6.7030  -10.3860   13.8390 C   0  0  2  0  0  3  0  0  0  0  0  0
    8.2220  -10.4800   13.6500 C   0  0  0  0  0  0  0  0  0  0  0  0
    9.0840   -9.4130   13.9150 C   0  0  0  0  0  3  0  0  0  0  0  0
   10.3260   -9.3700   13.3010 C   0  0  0  0  0  3  0  0  0  0  0  0
   10.7860  -10.4720   12.5880 C   0  0  0  0  0  3  0  0  0  0  0  0
   10.0980  -11.6780   12.6210 C   0  0  0  0  0  0  0  0  0  0  0  0
    8.7780  -11.6500   13.0930 C   0  0  0  0  0  3  0  0  0  0  0  0
   10.6290  -12.9290   12.2420 N   0  0  0  0  0  0  0  0  0  0  0  0
   10.0740  -14.1660   11.9880 C   0  0  0  0  0  0  0  0  0  0  0  0
   10.7890  -15.0850   11.5860 O   0  0  0  0  0  0  0  0  0  0  0  0
   11.6220  -12.9440   12.0360 H   0  0  0  0  0  0  0  0  0  0  0  0
    8.6580  -14.4630   12.2510 C   0  0  0  0  0  0  0  0  0  0  0  0
    8.2530  -14.5390   13.5880 C   0  0  0  0  0  3  0  0  0  0  0  0
    6.8970  -14.6420   13.8930 C   0  0  0  0  0  3  0  0  0  0  0  0
    5.9590  -14.6760   12.8600 C   0  0  0  0  0  0  0  0  0  0  0  0
    4.1150  -14.6710   13.2770 Br  0  0  0  0  0  0  0  0  0  0  0  0
    6.3670  -14.6780   11.5240 C   0  0  0  0  0  3  0  0  0  0  0  0
    7.7280  -14.6050   11.2130 C   0  0  0  0  0  3  0  0  0  0  0  0
    5.8930  -11.2320   12.9410 N   0  0  0  0  0  0  0  0  0  0  0  0
    4.9180  -11.3270   13.2080 H   0  0  0  0  0  0  0  0  0  0  0  0
    5.9360  -11.2900   11.5630 C   0  0  0  0  0  0  0  0  0  0  0  0
    4.9540  -12.0740   11.0880 N   0  0  0  0  0  0  0  0  0  0  0  0
    4.6690  -11.9520    9.7950 C   0  0  0  0  0  3  0  0  0  0  0  0
    5.2440  -11.0940    8.9460 N   0  0  0  0  0  0  0  0  0  0  0  0
    6.2900  -10.3650    9.3980 C   0  0  0  0  0  0  0  0  0  0  0  0
    6.9350   -9.4080    8.5880 C   0  0  0  0  0  0  0  0  0  0  0  0
    8.0760   -8.7190    9.0410 C   0  0  0  0  0  3  0  0  0  0  0  0
    8.5830   -8.9500   10.3100 C   0  0  0  0  0  3  0  0  0  0  0  0
    7.9130   -9.8290   11.1500 C   0  0  0  0  0  3  0  0  0  0  0  0
    6.7460  -10.5080   10.7230 C   0  0  0  0  0  0  0  0  0  0  0  0
    6.4250   -8.9980    7.2410 C   0  0  0  0  0  0  0  0  0  0  0  0
    5.0780   -8.8410    7.0770 N   0  0  0  0  0  0  0  0  0  0  0  0
    7.1830   -8.7640    6.3110 O   0  0  0  0  0  0  0  0  0  0  0  0
    4.7260   -8.5390    6.1810 H   0  0  0  0  0  0  0  0  0  0  0  0
    4.4310   -9.0630    7.8270 H   0  0  0  0  0  0  0  0  0  0  0  0
    6.2520   -8.9200   13.7340 C   0  0  0  0  0  2  0  0  0  0  0  0
    4.7400   -8.7250   13.5980 C   0  0  0  0  0  2  0  0  0  0  0  0
    3.9510   -9.4470   11.4570 C   0  0  0  0  0  1  0  0  0  0  0  0
    4.1220   -9.7580   12.8350 O   0  0  0  0  0  0  0  0  0  0  0  0
  1 36  1  6  0  0  0
  2  1  1  0  0  0  0
  2  3  1  0  0  0  0
  4  3  2  0  0  0  0
  5  6  2  0  0  0  0
  5  4  1  0  0  0  0
  6  7  1  0  0  0  0
  7  2  2  0  0  0  0
  8  6  1  0  0  0  0
  9  8  1  0  0  0  0
  9 12  1  0  0  0  0
 10  9  2  0  0  0  0
 11  8  1  0  0  0  0
 12 13  1  0  0  0  0
 13 14  2  0  0  0  0
 15 16  1  0  0  0  0
 15 14  1  0  0  0  0
 17 15  2  0  0  0  0
 18 17  1  0  0  0  0
 18 12  2  0  0  0  0
 19 20  1  0  0  0  0
 19  1  1  0  0  0  0
 21 19  1  0  0  0  0
 22 21  1  0  0  0  0
 23 22  2  0  0  0  0
 24 25  2  0  0  0  0
 24 23  1  0  0  0  0
 25 30  1  0  0  0  0
 26 27  2  0  0  0  0
 26 25  1  0  0  0  0
 27 28  1  0  0  0  0
 28 29  2  0  0  0  0
 30 29  1  0  0  0  0
 30 21  2  0  0  0  0
 31 26  1  0  0  0  0
 32 31  1  0  0  0  0
 32 35  1  0  0  0  0
 33 31  2  0  0  0  0
 34 32  1  0  0  0  0
 37 36  1  0  0  0  0
 38 39  1  0  0  0  0
 39 37  1  0  0  0  0
M  END
>  <minimizedAffinity>
15.1843634

$$$$
