REMARK  Name = 
REMARK  10 active torsions:
REMARK  status: ('A' for Active; 'I' for Inactive)
REMARK    1  A    between atoms: C_1  and  O_2
REMARK    2  A    between atoms: O_2  and  C_3
REMARK    3  A    between atoms: C_3  and  C_4
REMARK    4  A    between atoms: C_4  and  C_5
REMARK    5  A    between atoms: C_5  and  N_6
REMARK    6  A    between atoms: C_5  and  C_20
REMARK    7  A    between atoms: N_6  and  C_7
REMARK    8  A    between atoms: C_12  and  C_13
REMARK    9  A    between atoms: C_24  and  N_25
REMARK   10  A    between atoms: C_26  and  C_28
REMARK                            x       y       z     vdW  Elec       q    Type
REMARK                         _______ _______ _______ _____ _____    ______ ____
ROOT
ATOM      1  C   UNL     1       0.978   2.110  -1.785  0.00  0.00    +0.104 C 
ENDROOT
BRANCH   1   2
ATOM      2  C   UNL     1       0.444   3.442  -2.324  0.00  0.00    -0.025 A 
ATOM      3  C   UNL     1       1.236   4.337  -3.048  0.00  0.00    +0.005 A 
ATOM      4  C   UNL     1       0.884   5.677  -3.095  0.00  0.00    +0.002 A 
ATOM      5  C   UNL     1      -0.347   6.089  -2.595  0.00  0.00    +0.023 A 
ATOM      6  C   UNL     1      -1.302   5.160  -2.204  0.00  0.00    +0.034 A 
ATOM      7  C   UNL     1      -0.870   3.842  -2.001  0.00  0.00    +0.028 A 
BRANCH   6   8
ATOM      8  N   UNL     1      -2.674   5.432  -2.019  0.00  0.00    -0.281 N 
ATOM      9  C   UNL     1      -3.461   6.550  -2.205  0.00  0.00    +0.248 C 
ATOM     10  O   UNL     1      -4.678   6.475  -2.034  0.00  0.00    -0.270 OA
ATOM     11  H   UNL     1      -3.251   4.640  -1.759  0.00  0.00    +0.155 HD
BRANCH   9  12
ATOM     12  C   UNL     1      -2.894   7.867  -2.531  0.00  0.00    +0.037 A 
ATOM     13  C   UNL     1      -2.880   8.831  -1.517  0.00  0.00    +0.014 A 
ATOM     14  C   UNL     1      -2.199  10.031  -1.716  0.00  0.00    +0.016 A 
ATOM     15  C   UNL     1      -1.545  10.260  -2.927  0.00  0.00    +0.018 A 
ATOM     16 BR   UNL     1      -0.504  11.823  -3.142  0.00  0.00    -0.050 Br
ATOM     17  C   UNL     1      -1.623   9.331  -3.968  0.00  0.00    +0.016 A 
ATOM     18  C   UNL     1      -2.331   8.139  -3.784  0.00  0.00    +0.014 A 
ENDBRANCH   9  12
ENDBRANCH   6   8
ENDBRANCH   1   2
BRANCH   1  19
ATOM     19  N   UNL     1       2.436   2.049  -1.561  0.00  0.00    -0.322 N 
ATOM     20  H   UNL     1       2.934   1.402  -2.166  0.00  0.00    +0.148 HD
BRANCH  19  21
ATOM     21  C   UNL     1       3.298   3.094  -1.300  0.00  0.00    +0.130 A 
ATOM     22  N   UNL     1       4.396   3.010  -2.070  0.00  0.00    -0.220 NA
ATOM     23  C   UNL     1       5.138   4.109  -2.168  0.00  0.00    +0.223 A 
ATOM     24  N   UNL     1       4.864   5.289  -1.605  0.00  0.00    -0.235 NA
ATOM     25  C   UNL     1       3.809   5.356  -0.761  0.00  0.00    +0.088 A 
ATOM     26  C   UNL     1       3.420   6.565  -0.150  0.00  0.00    +0.063 A 
ATOM     27  C   UNL     1       2.375   6.604   0.793  0.00  0.00    +0.015 A 
ATOM     28  C   UNL     1       1.684   5.450   1.128  0.00  0.00    +0.002 A 
ATOM     29  C   UNL     1       2.000   4.266   0.477  0.00  0.00    +0.013 A 
ATOM     30  C   UNL     1       3.027   4.214  -0.497  0.00  0.00    +0.041 A 
BRANCH  26  31
ATOM     31  C   UNL     1       4.020   7.891  -0.503  0.00  0.00    +0.244 C 
ATOM     32  N   UNL     1       4.901   7.948  -1.545  0.00  0.00    -0.325 N 
ATOM     33  O   UNL     1       3.709   8.915   0.088  0.00  0.00    -0.270 OA
ATOM     34  H   UNL     1       5.291   8.841  -1.808  0.00  0.00    +0.145 HD
ATOM     35  H   UNL     1       5.198   7.104  -2.025  0.00  0.00    +0.145 HD
ENDBRANCH  26  31
ENDBRANCH  19  21
ENDBRANCH   1  19
BRANCH   1  36
ATOM     36  C   UNL     1       0.535   0.958  -2.702  0.00  0.00    +0.055 C 
BRANCH  36  37
ATOM     37  C   UNL     1       0.872  -0.440  -2.180  0.00  0.00    +0.161 C 
BRANCH  37  39
ATOM     38  C   UNL     1       0.861  -0.611   0.207  0.00  0.00    +0.193 C 
ATOM     39  O   UNL     1       0.137  -0.777  -1.006  0.00  0.00    -0.383 OA
ENDBRANCH  37  39
ENDBRANCH  36  37
ENDBRANCH   1  36
TORSDOF 9
