REMARK  Name = 
REMARK  9 active torsions:
REMARK  status: ('A' for Active; 'I' for Inactive)
REMARK    1  A    between atoms: C_1  and  O_2
REMARK    2  A    between atoms: O_2  and  C_3
REMARK    3  A    between atoms: C_6  and  C_7
REMARK    4  A    between atoms: N_9  and  C_10
REMARK    5  A    between atoms: C_14  and  C_15
REMARK    6  A    between atoms: C_15  and  C_16
REMARK    7  A    between atoms: C_15  and  N_17
REMARK    8  A    between atoms: N_17  and  C_18
REMARK    9  A    between atoms: C_23  and  C_24
REMARK                            x       y       z     vdW  Elec       q    Type
REMARK                         _______ _______ _______ _____ _____    ______ ____
ROOT
ATOM      1  C   UNL     1       6.403   3.677   0.624  0.00  0.00    +0.099 C 
ATOM      2  C   UNL     1       7.734   4.434   0.637  0.00  0.00    +0.033 C 
ENDROOT
BRANCH   1   7
ATOM      3  C   UNL     1       4.834   2.822   4.021  0.00  0.00    +0.034 A 
ATOM      4  C   UNL     1       5.792   1.961   4.559  0.00  0.00    +0.023 A 
ATOM      5  C   UNL     1       6.880   1.551   3.790  0.00  0.00    +0.002 A 
ATOM      6  C   UNL     1       7.061   2.065   2.506  0.00  0.00    +0.005 A 
ATOM      7  C   UNL     1       6.151   2.992   1.972  0.00  0.00    -0.026 A 
ATOM      8  C   UNL     1       5.002   3.318   2.723  0.00  0.00    +0.028 A 
BRANCH   3  11
ATOM      9  C   UNL     1       2.586   3.801   4.542  0.00  0.00    +0.250 C 
ATOM     10  O   UNL     1       2.092   4.706   5.210  0.00  0.00    -0.270 OA
ATOM     11  N   UNL     1       3.810   3.269   4.873  0.00  0.00    -0.281 N 
ATOM     12  H   UNL     1       4.051   3.379   5.852  0.00  0.00    +0.155 HD
BRANCH   9  16
ATOM     13  C   UNL     1      -0.084   1.976   1.830  0.00  0.00    +0.214 A 
ATOM     14  C   UNL     1       0.791   1.157   2.532  0.00  0.00    +0.068 A 
ATOM     15  C   UNL     1       1.735   1.746   3.376  0.00  0.00    +0.020 A 
ATOM     16  C   UNL     1       1.762   3.135   3.510  0.00  0.00    +0.055 A 
ATOM     17  C   UNL     1       0.833   3.871   2.793  0.00  0.00    +0.127 A 
ATOM     18  N   UNL     1      -0.072   3.323   1.942  0.00  0.00    -0.221 NA
BRANCH  13  20
ATOM     19  C   UNL     1      -0.724   0.400   0.216  0.00  0.00    +0.279 C 
ATOM     20  O   UNL     1      -1.095   1.495   1.046  0.00  0.00    -0.480 OA
ENDBRANCH  13  20
ENDBRANCH   9  16
ENDBRANCH   3  11
ENDBRANCH   1   7
BRANCH   1  21
ATOM     21  N   UNL     1       6.407   2.708  -0.465  0.00  0.00    -0.322 N 
ATOM     22  H   UNL     1       7.277   2.305  -0.769  0.00  0.00    +0.148 HD
BRANCH  21  23
ATOM     23  C   UNL     1       5.206   2.046  -0.699  0.00  0.00    +0.130 A 
ATOM     24  N   UNL     1       4.093   2.798  -0.642  0.00  0.00    -0.220 NA
ATOM     25  C   UNL     1       2.944   2.155  -0.461  0.00  0.00    +0.223 A 
ATOM     26  N   UNL     1       2.823   0.845  -0.244  0.00  0.00    -0.235 NA
ATOM     27  C   UNL     1       3.930   0.090  -0.353  0.00  0.00    +0.088 A 
ATOM     28  C   UNL     1       3.915  -1.274  -0.058  0.00  0.00    +0.063 A 
ATOM     29  C   UNL     1       5.015  -2.120  -0.259  0.00  0.00    +0.015 A 
ATOM     30  C   UNL     1       6.205  -1.585  -0.724  0.00  0.00    +0.002 A 
ATOM     31  C   UNL     1       6.296  -0.207  -0.899  0.00  0.00    +0.013 A 
ATOM     32  C   UNL     1       5.171   0.641  -0.691  0.00  0.00    +0.041 A 
BRANCH  28  33
ATOM     33  C   UNL     1       2.793  -1.812   0.722  0.00  0.00    +0.244 C 
ATOM     34  N   UNL     1       2.980  -1.732   2.077  0.00  0.00    -0.325 N 
ATOM     35  O   UNL     1       1.812  -2.327   0.217  0.00  0.00    -0.270 OA
ATOM     36  H   UNL     1       2.269  -2.106   2.690  0.00  0.00    +0.145 HD
ATOM     37  H   UNL     1       3.794  -1.289   2.486  0.00  0.00    +0.145 HD
ENDBRANCH  28  33
ENDBRANCH  21  23
ENDBRANCH   1  21
TORSDOF 7
