
 OpenBabel10152419393D

 37 40  0  0  0  0  0  0  0  0999 V2000
    2.0950  -11.8170  -26.6820 C   0  0  0  0  0  0  0  0  0  0  0  0
    3.1330  -12.3930  -25.9490 C   0  0  0  0  0  3  0  0  0  0  0  0
    4.4310  -11.8950  -26.0710 C   0  0  0  0  0  3  0  0  0  0  0  0
    4.7040  -10.8200  -26.9250 C   0  0  0  0  0  3  0  0  0  0  0  0
    3.6860  -10.2400  -27.6810 C   0  0  0  0  0  0  0  0  0  0  0  0
    2.3860  -10.7430  -27.5450 C   0  0  0  0  0  3  0  0  0  0  0  0
    3.8360   -9.1320  -28.5330 N   0  0  0  0  0  0  0  0  0  0  0  0
    3.1990   -7.9190  -28.6200 C   0  0  0  0  0  0  0  0  0  0  0  0
    3.3870   -7.1940  -29.5960 O   0  0  0  0  0  0  0  0  0  0  0  0
    4.5430   -9.2180  -29.2560 H   0  0  0  0  0  0  0  0  0  0  0  0
    2.3740   -7.3980  -27.5360 C   0  0  0  0  0  0  0  0  0  0  0  0
    2.6980   -7.6920  -26.2150 C   0  0  0  0  0  0  0  0  0  0  0  0
    3.8190   -8.3640  -25.9170 F   0  0  0  0  0  0  0  0  0  0  0  0
    1.8810   -7.2610  -25.1740 C   0  0  0  0  0  3  0  0  0  0  0  0
    0.7210   -6.5450  -25.4660 C   0  0  0  0  0  0  0  0  0  0  0  0
   -0.2940   -6.0100  -24.1870 Cl  0  0  0  0  0  0  0  0  0  0  0  0
    0.3760   -6.2610  -26.7870 C   0  0  0  0  0  3  0  0  0  0  0  0
    1.2040   -6.6990  -27.8170 C   0  0  0  0  0  0  0  0  0  0  0  0
    0.8450   -6.4400  -29.0820 F   0  0  0  0  0  0  0  0  0  0  0  0
    0.6660  -12.2970  -26.5460 C   0  0  0  0  0  2  0  0  0  0  0  0
   -1.8610   -9.6770  -21.6340 C   0  0  0  0  0  0  0  0  0  0  0  0
   -1.6120  -10.6640  -20.6690 C   0  0  0  0  0  3  0  0  0  0  0  0
   -0.9810  -11.8370  -21.0440 C   0  0  0  0  0  3  0  0  0  0  0  0
   -0.5970  -12.0030  -22.3730 C   0  0  0  0  0  3  0  0  0  0  0  0
   -0.8320  -10.9950  -23.3480 C   0  0  0  0  0  0  0  0  0  0  0  0
   -0.4310  -11.0840  -24.6990 C   0  0  0  0  0  0  0  0  0  0  0  0
    0.2750  -12.1920  -25.1530 N   0  0  0  0  0  0  0  0  0  0  0  0
   -0.7280  -10.1260  -25.5920 N   0  0  0  0  0  0  0  0  0  0  0  0
   -1.3700   -9.0500  -25.1330 C   0  0  0  0  0  3  0  0  0  0  0  0
   -1.7380   -8.8360  -23.8710 N   0  0  0  0  0  0  0  0  0  0  0  0
   -1.4920   -9.8100  -22.9780 C   0  0  0  0  0  0  0  0  0  0  0  0
    0.8840  -12.6470  -24.4890 H   0  0  0  0  0  0  0  0  0  0  0  0
   -3.0690   -7.6750  -22.1720 N   0  0  0  0  0  0  0  0  0  0  0  0
   -2.5520   -8.4590  -21.1790 C   0  0  0  0  0  0  0  0  0  0  0  0
   -2.5950   -8.1390  -20.0010 O   0  0  0  0  0  0  0  0  0  0  0  0
   -3.5480   -6.8260  -21.8970 H   0  0  0  0  0  0  0  0  0  0  0  0
   -3.0520   -7.9330  -23.1480 H   0  0  0  0  0  0  0  0  0  0  0  0
  1 20  1  0  0  0  0
  1  2  1  0  0  0  0
  3  2  2  0  0  0  0
  4  3  1  0  0  0  0
  5  6  1  0  0  0  0
  5  4  2  0  0  0  0
  6  1  2  0  0  0  0
  7  5  1  0  0  0  0
  8  7  1  0  0  0  0
  8 11  1  0  0  0  0
  9  8  2  0  0  0  0
 10  7  1  0  0  0  0
 11 12  1  0  0  0  0
 12 13  1  0  0  0  0
 12 14  2  0  0  0  0
 15 14  1  0  0  0  0
 15 16  1  0  0  0  0
 17 15  2  0  0  0  0
 18 11  2  0  0  0  0
 18 17  1  0  0  0  0
 19 18  1  0  0  0  0
 20 27  1  0  0  0  0
 21 34  1  0  0  0  0
 21 22  1  0  0  0  0
 23 22  2  0  0  0  0
 24 23  1  0  0  0  0
 25 31  1  0  0  0  0
 25 24  2  0  0  0  0
 26 25  1  0  0  0  0
 27 26  1  0  0  0  0
 27 32  1  0  0  0  0
 28 29  1  0  0  0  0
 28 26  2  0  0  0  0
 29 30  2  0  0  0  0
 30 31  1  0  0  0  0
 31 21  2  0  0  0  0
 33 36  1  0  0  0  0
 33 34  1  0  0  0  0
 34 35  2  0  0  0  0
 37 33  1  0  0  0  0
M  END
>  <minimizedAffinity>
-7.42306566

$$$$
