
 OpenBabel10152419393D

 37 40  0  0  0  0  0  0  0  0999 V2000
   -0.8120   -7.3470  -23.9590 C   0  0  0  0  0  0  0  0  0  0  0  0
   -2.1570   -7.0050  -24.1000 C   0  0  0  0  0  3  0  0  0  0  0  0
   -3.1470   -7.8700  -23.6330 C   0  0  0  0  0  3  0  0  0  0  0  0
   -2.8040   -9.0820  -23.0220 C   0  0  0  0  0  3  0  0  0  0  0  0
   -1.4670   -9.4520  -22.8870 C   0  0  0  0  0  0  0  0  0  0  0  0
   -0.4810   -8.5730  -23.3520 C   0  0  0  0  0  3  0  0  0  0  0  0
   -1.0080  -10.6200  -22.2520 N   0  0  0  0  0  0  0  0  0  0  0  0
   -0.3400  -11.7330  -22.7000 C   0  0  0  0  0  0  0  0  0  0  0  0
   -0.2300  -12.7180  -21.9710 O   0  0  0  0  0  0  0  0  0  0  0  0
   -1.2080  -10.6970  -21.2610 H   0  0  0  0  0  0  0  0  0  0  0  0
    0.3460  -11.7590  -23.9860 C   0  0  0  0  0  0  0  0  0  0  0  0
   -0.3920  -11.7220  -25.1660 C   0  0  0  0  0  0  0  0  0  0  0  0
   -1.7220  -11.5600  -25.1390 F   0  0  0  0  0  0  0  0  0  0  0  0
    0.2440  -11.8170  -26.4010 C   0  0  0  0  0  3  0  0  0  0  0  0
    1.6300  -11.9690  -26.4470 C   0  0  0  0  0  0  0  0  0  0  0  0
    2.4220  -12.0890  -27.9670 Cl  0  0  0  0  0  0  0  0  0  0  0  0
    2.3760  -12.0260  -25.2710 C   0  0  0  0  0  3  0  0  0  0  0  0
    1.7260  -11.9290  -24.0440 C   0  0  0  0  0  0  0  0  0  0  0  0
    2.4560  -12.0110  -22.9230 F   0  0  0  0  0  0  0  0  0  0  0  0
    0.2960   -6.4190  -24.4120 C   0  0  0  0  0  2  0  0  0  0  0  0
    3.9520   -8.3460  -28.9170 C   0  0  0  0  0  0  0  0  0  0  0  0
    4.7160   -9.2990  -28.2290 C   0  0  0  0  0  3  0  0  0  0  0  0
    4.4980   -9.4960  -26.8760 C   0  0  0  0  0  3  0  0  0  0  0  0
    3.5140   -8.7480  -26.2340 C   0  0  0  0  0  3  0  0  0  0  0  0
    2.7260   -7.7930  -26.9360 C   0  0  0  0  0  0  0  0  0  0  0  0
    1.6870   -7.0340  -26.3540 C   0  0  0  0  0  0  0  0  0  0  0  0
    1.3460   -7.2160  -25.0190 N   0  0  0  0  0  0  0  0  0  0  0  0
    1.0120   -6.1060  -27.0500 N   0  0  0  0  0  0  0  0  0  0  0  0
    1.3240   -5.9710  -28.3400 C   0  0  0  0  0  3  0  0  0  0  0  0
    2.2400   -6.6770  -29.0030 N   0  0  0  0  0  0  0  0  0  0  0  0
    2.9580   -7.5740  -28.3050 C   0  0  0  0  0  0  0  0  0  0  0  0
    1.4700   -8.1430  -24.6390 H   0  0  0  0  0  0  0  0  0  0  0  0
    4.7160   -6.9360  -30.7020 N   0  0  0  0  0  0  0  0  0  0  0  0
    4.2420   -8.1680  -30.3500 C   0  0  0  0  0  0  0  0  0  0  0  0
    4.0050   -9.0400  -31.1730 O   0  0  0  0  0  0  0  0  0  0  0  0
    4.9220   -6.7750  -31.6800 H   0  0  0  0  0  0  0  0  0  0  0  0
    4.9280   -6.2110  -30.0320 H   0  0  0  0  0  0  0  0  0  0  0  0
  1  6  1  0  0  0  0
  2  1  2  0  0  0  0
  2  3  1  0  0  0  0
  3  4  2  0  0  0  0
  4  5  1  0  0  0  0
  5  7  1  0  0  0  0
  6  5  2  0  0  0  0
  7 10  1  0  0  0  0
  8  7  1  0  0  0  0
  8  9  2  0  0  0  0
 11  8  1  0  0  0  0
 12 13  1  0  0  0  0
 12 11  2  0  0  0  0
 14 12  1  0  0  0  0
 15 14  2  0  0  0  0
 15 17  1  0  0  0  0
 16 15  1  0  0  0  0
 17 18  2  0  0  0  0
 18 11  1  0  0  0  0
 18 19  1  0  0  0  0
 20  1  1  0  0  0  0
 21 31  2  0  0  0  0
 21 22  1  0  0  0  0
 22 23  2  0  0  0  0
 23 24  1  0  0  0  0
 25 26  1  0  0  0  0
 25 24  2  0  0  0  0
 26 27  1  0  0  0  0
 27 32  1  0  0  0  0
 27 20  1  0  0  0  0
 28 26  2  0  0  0  0
 29 28  1  0  0  0  0
 30 29  2  0  0  0  0
 30 31  1  0  0  0  0
 31 25  1  0  0  0  0
 33 34  1  0  0  0  0
 33 37  1  0  0  0  0
 34 21  1  0  0  0  0
 35 34  2  0  0  0  0
 36 33  1  0  0  0  0
M  END
>  <minimizedAffinity>
-8.61647224

$$$$
