REMARK  Name = 
REMARK  5 active torsions:
REMARK  status: ('A' for Active; 'I' for Inactive)
REMARK    1  A    between atoms: C_2  and  C_4
REMARK    2  A    between atoms: N_10  and  C_11
REMARK    3  A    between atoms: C_11  and  C_12
REMARK    4  A    between atoms: C_16  and  N_17
REMARK    5  A    between atoms: C_18  and  C_20
REMARK                            x       y       z     vdW  Elec       q    Type
REMARK                         _______ _______ _______ _____ _____    ______ ____
ROOT
ATOM      1  C   UNL     1       2.088  -8.652  -3.186  0.00  0.00    -0.029 A 
ATOM      2  C   UNL     1       2.331  -9.993  -2.888  0.00  0.00    +0.005 A 
ATOM      3  C   UNL     1       3.490 -10.611  -3.359  0.00  0.00    +0.002 A 
ATOM      4  C   UNL     1       4.415  -9.897  -4.130  0.00  0.00    +0.023 A 
ATOM      5  C   UNL     1       4.184  -8.561  -4.455  0.00  0.00    +0.034 A 
ATOM      6  C   UNL     1       3.021  -7.949  -3.971  0.00  0.00    +0.028 A 
ENDROOT
BRANCH   5   7
ATOM      7  N   UNL     1       5.062  -7.738  -5.182  0.00  0.00    -0.281 N 
ATOM      8  C   UNL     1       6.173  -7.993  -5.947  0.00  0.00    +0.254 C 
ATOM      9  O   UNL     1       6.890  -7.065  -6.318  0.00  0.00    -0.270 OA
ATOM     10  H   UNL     1       4.875  -6.742  -5.143  0.00  0.00    +0.155 HD
BRANCH   8  11
ATOM     11  C   UNL     1       6.488  -9.331  -6.434  0.00  0.00    +0.107 A 
ATOM     12  C   UNL     1       7.689  -9.935  -6.074  0.00  0.00    +0.140 A 
ATOM     13  F   UNL     1       8.519  -9.346  -5.202  0.00  0.00    -0.205 F 
ATOM     14  C   UNL     1       8.035 -11.182  -6.587  0.00  0.00    +0.059 A 
ATOM     15  C   UNL     1       7.174 -11.816  -7.482  0.00  0.00    +0.046 A 
ATOM     16 CL   UNL     1       7.594 -13.355  -8.121  0.00  0.00    -0.083 Cl
ATOM     17  C   UNL     1       5.977 -11.212  -7.864  0.00  0.00    +0.059 A 
ATOM     18  C   UNL     1       5.645  -9.965  -7.342  0.00  0.00    +0.140 A 
ATOM     19  F   UNL     1       4.503  -9.387  -7.739  0.00  0.00    -0.205 F 
ENDBRANCH   8  11
ENDBRANCH   5   7
BRANCH   1  20
ATOM     20  C   UNL     1       0.865  -7.931  -2.659  0.00  0.00    +0.138 C 
BRANCH  20  27
ATOM     21  C   UNL     1       0.776  -2.563   0.266  0.00  0.00    +0.063 A 
ATOM     22  C   UNL     1       1.815  -2.762   1.186  0.00  0.00    +0.015 A 
ATOM     23  C   UNL     1       2.473  -3.980   1.214  0.00  0.00    +0.002 A 
ATOM     24  C   UNL     1       2.092  -4.975   0.317  0.00  0.00    +0.013 A 
ATOM     25  C   UNL     1       1.050  -4.767  -0.629  0.00  0.00    +0.041 A 
ATOM     26  C   UNL     1       0.645  -5.718  -1.591  0.00  0.00    +0.130 A 
ATOM     27  N   UNL     1       1.296  -6.942  -1.688  0.00  0.00    -0.324 N 
ATOM     28  N   UNL     1      -0.383  -5.490  -2.424  0.00  0.00    -0.220 NA
ATOM     29  C   UNL     1      -0.972  -4.296  -2.346  0.00  0.00    +0.223 A 
ATOM     30  N   UNL     1      -0.630  -3.306  -1.522  0.00  0.00    -0.235 NA
ATOM     31  C   UNL     1       0.364  -3.540  -0.648  0.00  0.00    +0.088 A 
ATOM     32  H   UNL     1       2.277  -6.956  -1.451  0.00  0.00    +0.148 HD
BRANCH  21  34
ATOM     33  N   UNL     1       0.819  -0.214  -0.225  0.00  0.00    -0.325 N 
ATOM     34  C   UNL     1       0.101  -1.254   0.295  0.00  0.00    +0.244 C 
ATOM     35  O   UNL     1      -0.995  -1.101   0.814  0.00  0.00    -0.270 OA
ATOM     36  H   UNL     1       0.388   0.702  -0.218  0.00  0.00    +0.145 HD
ATOM     37  H   UNL     1       1.719  -0.328  -0.668  0.00  0.00    +0.145 HD
ENDBRANCH  21  34
ENDBRANCH  20  27
ENDBRANCH   1  20
TORSDOF 5
