
 OpenBabel10152419373D

 37 40  0  0  1  0  0  0  0  0999 V2000
   -1.7910   -9.6600  -23.2440 C   0  0  2  0  0  3  0  0  0  0  0  0
   -0.9800   -9.3100  -21.9930 C   0  0  0  0  0  1  0  0  0  0  0  0
    1.2510  -11.3000  -24.9140 C   0  0  0  0  0  0  0  0  0  0  0  0
    0.7260  -11.6510  -26.1580 C   0  0  0  0  0  3  0  0  0  0  0  0
   -0.6350  -11.4930  -26.4150 C   0  0  0  0  0  3  0  0  0  0  0  0
   -1.4640  -10.9040  -25.4600 C   0  0  0  0  0  3  0  0  0  0  0  0
   -0.9430  -10.4700  -24.2300 C   0  0  0  0  0  0  0  0  0  0  0  0
    0.4140  -10.7340  -23.9430 C   0  0  0  0  0  3  0  0  0  0  0  0
    3.6340  -11.2790  -25.6950 C   0  0  0  0  0  0  0  0  0  0  0  0
    4.6480  -11.9680  -25.6320 O   0  0  0  0  0  0  0  0  0  0  0  0
    2.6450  -11.3910  -24.7480 N   0  0  0  0  0  0  0  0  0  0  0  0
    2.9730  -11.7470  -23.8570 H   0  0  0  0  0  0  0  0  0  0  0  0
    3.8510   -8.1330  -28.4950 C   0  0  0  0  0  0  0  0  0  0  0  0
    3.4600   -7.8220  -27.1990 C   0  0  0  0  0  3  0  0  0  0  0  0
    3.3110   -8.8580  -26.2770 C   0  0  0  0  0  3  0  0  0  0  0  0
    3.5770  -10.1700  -26.6720 C   0  0  0  0  0  0  0  0  0  0  0  0
    3.9940  -10.3820  -27.9760 C   0  0  0  0  0  3  0  0  0  0  0  0
    4.1170   -9.3940  -28.8990 N   0  0  0  0  0  0  0  0  0  0  0  0
    4.3670   -7.7140  -30.7360 C   0  0  0  0  0  1  0  0  0  0  0  0
    4.1020   -7.1790  -29.4430 O   0  0  0  0  0  0  0  0  0  0  0  0
   -2.2930   -8.4320  -23.8510 N   0  0  0  0  0  0  0  0  0  0  0  0
   -3.2850   -8.2690  -23.8860 H   0  0  0  0  0  0  0  0  0  0  0  0
   -1.4090   -7.3540  -23.8570 C   0  0  0  0  0  0  0  0  0  0  0  0
   -1.4040   -6.5820  -22.7550 N   0  0  0  0  0  0  0  0  0  0  0  0
   -0.9420   -5.3440  -22.8940 C   0  0  0  0  0  3  0  0  0  0  0  0
   -0.5800   -4.7890  -24.0500 N   0  0  0  0  0  0  0  0  0  0  0  0
   -0.5290   -5.5850  -25.1330 C   0  0  0  0  0  0  0  0  0  0  0  0
   -0.2630   -5.0740  -26.4040 C   0  0  0  0  0  0  0  0  0  0  0  0
   -0.0700   -5.8770  -27.5380 C   0  0  0  0  0  3  0  0  0  0  0  0
   -0.2050   -7.2500  -27.4240 C   0  0  0  0  0  3  0  0  0  0  0  0
   -0.6320   -7.7780  -26.2080 C   0  0  0  0  0  3  0  0  0  0  0  0
   -0.8240   -6.9480  -25.0680 C   0  0  0  0  0  0  0  0  0  0  0  0
   -0.5110   -3.6420  -26.6360 C   0  0  0  0  0  0  0  0  0  0  0  0
    0.4130   -3.0640  -27.4700 N   0  0  0  0  0  0  0  0  0  0  0  0
   -1.4190   -3.0200  -26.1100 O   0  0  0  0  0  0  0  0  0  0  0  0
    0.3370   -2.0780  -27.6750 H   0  0  0  0  0  0  0  0  0  0  0  0
    1.1460   -3.6010  -27.9170 H   0  0  0  0  0  0  0  0  0  0  0  0
  1  2  1  1  0  0  0
  3 11  1  0  0  0  0
  3  8  1  0  0  0  0
  4  3  2  0  0  0  0
  5  4  1  0  0  0  0
  5  6  2  0  0  0  0
  6  7  1  0  0  0  0
  7  8  2  0  0  0  0
  7  1  1  0  0  0  0
  9 10  2  0  0  0  0
  9 11  1  0  0  0  0
 11 12  1  0  0  0  0
 13 14  1  0  0  0  0
 14 15  2  0  0  0  0
 16 15  1  0  0  0  0
 16  9  1  0  0  0  0
 17 16  2  0  0  0  0
 18 13  2  0  0  0  0
 18 17  1  0  0  0  0
 19 20  1  0  0  0  0
 20 13  1  0  0  0  0
 21  1  1  0  0  0  0
 22 21  1  0  0  0  0
 23 21  1  0  0  0  0
 23 24  1  0  0  0  0
 25 24  2  0  0  0  0
 26 25  1  0  0  0  0
 27 32  1  0  0  0  0
 27 26  2  0  0  0  0
 28 27  1  0  0  0  0
 29 30  1  0  0  0  0
 29 28  2  0  0  0  0
 30 31  2  0  0  0  0
 31 32  1  0  0  0  0
 32 23  2  0  0  0  0
 33 28  1  0  0  0  0
 33 35  2  0  0  0  0
 34 33  1  0  0  0  0
 36 34  1  0  0  0  0
 37 34  1  0  0  0  0
M  END
>  <minimizedAffinity>
-9.33934975

$$$$
