
 OpenBabel10152419373D

 37 40  0  0  1  0  0  0  0  0999 V2000
    2.1340  -10.8020  -25.7330 C   0  0  2  0  0  3  0  0  0  0  0  0
    1.3220  -11.1560  -26.9820 C   0  0  0  0  0  1  0  0  0  0  0  0
   -0.0640  -12.3690  -23.0040 C   0  0  0  0  0  0  0  0  0  0  0  0
    0.8980  -12.9470  -22.1750 C   0  0  0  0  0  3  0  0  0  0  0  0
    2.2390  -12.9590  -22.5560 C   0  0  0  0  0  3  0  0  0  0  0  0
    2.6380  -12.3190  -23.7300 C   0  0  0  0  0  3  0  0  0  0  0  0
    1.6980  -11.6620  -24.5420 C   0  0  0  0  0  0  0  0  0  0  0  0
    0.3320  -11.7510  -24.1980 C   0  0  0  0  0  3  0  0  0  0  0  0
   -1.9380  -11.3890  -21.6570 C   0  0  0  0  0  0  0  0  0  0  0  0
   -2.7800  -11.7330  -20.8310 O   0  0  0  0  0  0  0  0  0  0  0  0
   -1.3820  -12.3020  -22.5200 N   0  0  0  0  0  0  0  0  0  0  0  0
   -1.9680  -13.1130  -22.6870 H   0  0  0  0  0  0  0  0  0  0  0  0
   -1.5800   -7.2230  -22.2020 C   0  0  0  0  0  0  0  0  0  0  0  0
   -1.4020   -8.0390  -23.3110 C   0  0  0  0  0  3  0  0  0  0  0  0
   -1.4440   -9.4230  -23.1380 C   0  0  0  0  0  3  0  0  0  0  0  0
   -1.6820   -9.9480  -21.8670 C   0  0  0  0  0  0  0  0  0  0  0  0
   -1.8800   -9.0560  -20.8250 C   0  0  0  0  0  3  0  0  0  0  0  0
   -1.8140   -7.7070  -20.9620 N   0  0  0  0  0  0  0  0  0  0  0  0
   -0.7570   -5.3090  -23.2620 C   0  0  0  0  0  1  0  0  0  0  0  0
   -1.6370   -5.8580  -22.2860 O   0  0  0  0  0  0  0  0  0  0  0  0
    1.9830   -9.3780  -25.4490 N   0  0  0  0  0  0  0  0  0  0  0  0
    2.2370   -9.0270  -24.5410 H   0  0  0  0  0  0  0  0  0  0  0  0
    2.0150   -8.5330  -26.5570 C   0  0  0  0  0  0  0  0  0  0  0  0
    3.2220   -8.3220  -27.1110 N   0  0  0  0  0  0  0  0  0  0  0  0
    3.3610   -7.2200  -27.8410 C   0  0  0  0  0  3  0  0  0  0  0  0
    2.4340   -6.2730  -27.9790 N   0  0  0  0  0  0  0  0  0  0  0  0
    1.2120   -6.5210  -27.4740 C   0  0  0  0  0  0  0  0  0  0  0  0
    0.2090   -5.5520  -27.4780 C   0  0  0  0  0  0  0  0  0  0  0  0
   -1.1140   -5.8030  -27.0860 C   0  0  0  0  0  3  0  0  0  0  0  0
   -1.4500   -7.0580  -26.6090 C   0  0  0  0  0  3  0  0  0  0  0  0
   -0.4380   -7.9980  -26.4370 C   0  0  0  0  0  3  0  0  0  0  0  0
    0.9010   -7.7250  -26.8400 C   0  0  0  0  0  0  0  0  0  0  0  0
    0.6150   -4.1410  -27.5880 C   0  0  0  0  0  0  0  0  0  0  0  0
    0.0350   -3.3380  -26.6370 N   0  0  0  0  0  0  0  0  0  0  0  0
    1.3580   -3.7180  -28.4580 O   0  0  0  0  0  0  0  0  0  0  0  0
    0.2390   -2.3500  -26.6430 H   0  0  0  0  0  0  0  0  0  0  0  0
   -0.5600   -3.7110  -25.9080 H   0  0  0  0  0  0  0  0  0  0  0  0
  1  2  1  6  0  0  0
  1 21  1  0  0  0  0
  1  7  1  0  0  0  0
  3 11  1  0  0  0  0
  3  4  1  0  0  0  0
  5  4  2  0  0  0  0
  6  5  1  0  0  0  0
  7  8  1  0  0  0  0
  7  6  2  0  0  0  0
  8  3  2  0  0  0  0
  9 10  2  0  0  0  0
 11  9  1  0  0  0  0
 12 11  1  0  0  0  0
 13 18  2  0  0  0  0
 14 15  2  0  0  0  0
 14 13  1  0  0  0  0
 15 16  1  0  0  0  0
 16  9  1  0  0  0  0
 16 17  2  0  0  0  0
 18 17  1  0  0  0  0
 19 20  1  0  0  0  0
 20 13  1  0  0  0  0
 21 22  1  0  0  0  0
 23 21  1  0  0  0  0
 24 23  2  0  0  0  0
 25 24  1  0  0  0  0
 26 25  2  0  0  0  0
 26 27  1  0  0  0  0
 27 32  1  0  0  0  0
 28 27  2  0  0  0  0
 28 29  1  0  0  0  0
 29 30  2  0  0  0  0
 30 31  1  0  0  0  0
 32 23  1  0  0  0  0
 32 31  2  0  0  0  0
 33 28  1  0  0  0  0
 33 34  1  0  0  0  0
 34 37  1  0  0  0  0
 35 33  2  0  0  0  0
 36 34  1  0  0  0  0
M  END
>  <minimizedAffinity>
-7.76442862

$$$$
