
 OpenBabel10152419373D

 37 40  0  0  1  0  0  0  0  0999 V2000
    1.9670  -11.9350  -24.5850 C   0  0  2  0  0  3  0  0  0  0  0  0
    1.7750  -10.6140  -23.8340 C   0  0  0  0  0  1  0  0  0  0  0  0
    4.0400  -10.2130  -27.3190 C   0  0  0  0  0  0  0  0  0  0  0  0
    3.8910  -11.1070  -28.3800 C   0  0  0  0  0  3  0  0  0  0  0  0
    3.2480  -12.3280  -28.1850 C   0  0  0  0  0  3  0  0  0  0  0  0
    2.6740  -12.6270  -26.9490 C   0  0  0  0  0  3  0  0  0  0  0  0
    2.7420  -11.7100  -25.8880 C   0  0  0  0  0  0  0  0  0  0  0  0
    3.4890  -10.5250  -26.0680 C   0  0  0  0  0  3  0  0  0  0  0  0
    4.0060   -7.8290  -28.0940 C   0  0  0  0  0  0  0  0  0  0  0  0
    4.5970   -7.0880  -28.8750 O   0  0  0  0  0  0  0  0  0  0  0  0
    4.6110   -8.9600  -27.6010 N   0  0  0  0  0  0  0  0  0  0  0  0
    5.6240   -8.9140  -27.6030 H   0  0  0  0  0  0  0  0  0  0  0  0
    0.4950   -6.2210  -26.4000 C   0  0  0  0  0  0  0  0  0  0  0  0
    1.2160   -7.1410  -25.6490 C   0  0  0  0  0  3  0  0  0  0  0  0
    2.3390   -7.7390  -26.2190 C   0  0  0  0  0  3  0  0  0  0  0  0
    2.7210   -7.3860  -27.5150 C   0  0  0  0  0  0  0  0  0  0  0  0
    1.9610   -6.4340  -28.1760 C   0  0  0  0  0  3  0  0  0  0  0  0
    0.8460   -5.8610  -27.6540 N   0  0  0  0  0  0  0  0  0  0  0  0
   -0.7340   -4.2350  -26.4790 C   0  0  0  0  0  1  0  0  0  0  0  0
   -0.5690   -5.5240  -25.8970 O   0  0  0  0  0  0  0  0  0  0  0  0
    0.6630  -12.5400  -24.8350 N   0  0  0  0  0  0  0  0  0  0  0  0
    0.4780  -13.4700  -24.4980 H   0  0  0  0  0  0  0  0  0  0  0  0
   -0.3900  -11.6490  -25.0340 C   0  0  0  0  0  0  0  0  0  0  0  0
   -0.5080  -11.1340  -26.2700 N   0  0  0  0  0  0  0  0  0  0  0  0
   -1.1760   -9.9900  -26.3800 C   0  0  0  0  0  3  0  0  0  0  0  0
   -1.6430   -9.2760  -25.3570 N   0  0  0  0  0  0  0  0  0  0  0  0
   -1.5750   -9.8280  -24.1320 C   0  0  0  0  0  0  0  0  0  0  0  0
   -1.9430   -9.1180  -22.9890 C   0  0  0  0  0  0  0  0  0  0  0  0
   -2.0150   -9.6910  -21.7100 C   0  0  0  0  0  3  0  0  0  0  0  0
   -1.6480  -11.0140  -21.5410 C   0  0  0  0  0  3  0  0  0  0  0  0
   -1.1210  -11.7030  -22.6300 C   0  0  0  0  0  3  0  0  0  0  0  0
   -1.0530  -11.1060  -23.9210 C   0  0  0  0  0  0  0  0  0  0  0  0
   -1.9440   -7.6480  -23.0620 C   0  0  0  0  0  0  0  0  0  0  0  0
   -0.6850   -7.1050  -23.0080 N   0  0  0  0  0  0  0  0  0  0  0  0
   -2.9600   -6.9760  -23.1220 O   0  0  0  0  0  0  0  0  0  0  0  0
   -0.5850   -6.1010  -23.0330 H   0  0  0  0  0  0  0  0  0  0  0  0
    0.1490   -7.6790  -22.9830 H   0  0  0  0  0  0  0  0  0  0  0  0
  1  2  1  6  0  0  0
  3  8  1  0  0  0  0
  4  5  1  0  0  0  0
  4  3  2  0  0  0  0
  5  6  2  0  0  0  0
  6  7  1  0  0  0  0
  7  1  1  0  0  0  0
  8  7  2  0  0  0  0
  9 11  1  0  0  0  0
  9 16  1  0  0  0  0
 10  9  2  0  0  0  0
 11  3  1  0  0  0  0
 12 11  1  0  0  0  0
 13 20  1  0  0  0  0
 13 14  1  0  0  0  0
 15 14  2  0  0  0  0
 16 15  1  0  0  0  0
 17 18  1  0  0  0  0
 17 16  2  0  0  0  0
 18 13  2  0  0  0  0
 19 20  1  0  0  0  0
 21  1  1  0  0  0  0
 21 22  1  0  0  0  0
 23 21  1  0  0  0  0
 23 32  1  0  0  0  0
 24 23  2  0  0  0  0
 25 24  1  0  0  0  0
 25 26  2  0  0  0  0
 26 27  1  0  0  0  0
 27 32  2  0  0  0  0
 27 28  1  0  0  0  0
 28 29  2  0  0  0  0
 29 30  1  0  0  0  0
 31 30  2  0  0  0  0
 32 31  1  0  0  0  0
 33 34  1  0  0  0  0
 33 28  1  0  0  0  0
 34 37  1  0  0  0  0
 35 33  2  0  0  0  0
 36 34  1  0  0  0  0
M  END
>  <minimizedAffinity>
-8.99685764

$$$$
