
 OpenBabel10152419373D

 37 40  0  0  1  0  0  0  0  0999 V2000
    2.5860   -8.6770  -26.2930 C   0  0  2  0  0  3  0  0  0  0  0  0
    3.3450   -8.3840  -27.5900 C   0  0  0  0  0  1  0  0  0  0  0  0
    1.5710  -12.0830  -24.8420 C   0  0  0  0  0  0  0  0  0  0  0  0
    2.6920  -12.8560  -25.1450 C   0  0  0  0  0  3  0  0  0  0  0  0
    3.7140  -12.3320  -25.9350 C   0  0  0  0  0  3  0  0  0  0  0  0
    3.6600  -11.0030  -26.3570 C   0  0  0  0  0  3  0  0  0  0  0  0
    2.5790  -10.1810  -25.9980 C   0  0  0  0  0  0  0  0  0  0  0  0
    1.5030  -10.7560  -25.2890 C   0  0  0  0  0  3  0  0  0  0  0  0
   -0.1320  -12.0010  -23.0030 C   0  0  0  0  0  0  0  0  0  0  0  0
   -0.3890  -12.5550  -21.9370 O   0  0  0  0  0  0  0  0  0  0  0  0
    0.6220  -12.6330  -23.9620 N   0  0  0  0  0  0  0  0  0  0  0  0
    0.5960  -13.6450  -23.8990 H   0  0  0  0  0  0  0  0  0  0  0  0
   -2.3870   -8.5210  -23.7690 C   0  0  0  0  0  0  0  0  0  0  0  0
   -2.1380   -9.3800  -24.8310 C   0  0  0  0  0  3  0  0  0  0  0  0
   -1.3330  -10.4990  -24.6150 C   0  0  0  0  0  3  0  0  0  0  0  0
   -0.8180  -10.7360  -23.3400 C   0  0  0  0  0  0  0  0  0  0  0  0
   -1.1460   -9.8430  -22.3330 C   0  0  0  0  0  3  0  0  0  0  0  0
   -1.9020   -8.7310  -22.5250 N   0  0  0  0  0  0  0  0  0  0  0  0
   -4.4900   -7.6520  -23.2330 C   0  0  0  0  0  1  0  0  0  0  0  0
   -3.2290   -7.4470  -23.8640 O   0  0  0  0  0  0  0  0  0  0  0  0
    1.2310   -8.1460  -26.3980 N   0  0  0  0  0  0  0  0  0  0  0  0
    0.4680   -8.7740  -26.5830 H   0  0  0  0  0  0  0  0  0  0  0  0
    0.9980   -6.9450  -25.7300 C   0  0  0  0  0  0  0  0  0  0  0  0
    0.5520   -7.0440  -24.4650 N   0  0  0  0  0  0  0  0  0  0  0  0
   -0.0910   -5.9900  -23.9730 C   0  0  0  0  0  3  0  0  0  0  0  0
   -0.4080   -4.8960  -24.6650 N   0  0  0  0  0  0  0  0  0  0  0  0
    0.0950   -4.7800  -25.9070 C   0  0  0  0  0  0  0  0  0  0  0  0
   -0.2630   -3.7240  -26.7450 C   0  0  0  0  0  0  0  0  0  0  0  0
    0.3320   -3.4870  -27.9930 C   0  0  0  0  0  3  0  0  0  0  0  0
    1.2860   -4.3720  -28.4650 C   0  0  0  0  0  3  0  0  0  0  0  0
    1.5470   -5.5240  -27.7280 C   0  0  0  0  0  3  0  0  0  0  0  0
    0.9330   -5.7490  -26.4640 C   0  0  0  0  0  0  0  0  0  0  0  0
   -1.5250   -3.0200  -26.4640 C   0  0  0  0  0  0  0  0  0  0  0  0
   -1.4100   -2.0850  -25.4660 N   0  0  0  0  0  0  0  0  0  0  0  0
   -2.5760   -3.2690  -27.0300 O   0  0  0  0  0  0  0  0  0  0  0  0
   -2.2290   -1.5630  -25.1890 H   0  0  0  0  0  0  0  0  0  0  0  0
   -0.5240   -1.8750  -25.0240 H   0  0  0  0  0  0  0  0  0  0  0  0
  1  2  1  6  0  0  0
  1  7  1  0  0  0  0
  3 11  1  0  0  0  0
  4  3  1  0  0  0  0
  5  4  2  0  0  0  0
  6  7  2  0  0  0  0
  6  5  1  0  0  0  0
  7  8  1  0  0  0  0
  8  3  2  0  0  0  0
  9 10  2  0  0  0  0
 11 12  1  0  0  0  0
 11  9  1  0  0  0  0
 13 18  2  0  0  0  0
 14 15  2  0  0  0  0
 14 13  1  0  0  0  0
 15 16  1  0  0  0  0
 16  9  1  0  0  0  0
 16 17  2  0  0  0  0
 18 17  1  0  0  0  0
 20 13  1  0  0  0  0
 20 19  1  0  0  0  0
 21  1  1  0  0  0  0
 21 23  1  0  0  0  0
 22 21  1  0  0  0  0
 23 24  1  0  0  0  0
 24 25  2  0  0  0  0
 26 25  1  0  0  0  0
 27 26  2  0  0  0  0
 28 33  1  0  0  0  0
 28 27  1  0  0  0  0
 29 28  2  0  0  0  0
 30 29  1  0  0  0  0
 30 31  2  0  0  0  0
 31 32  1  0  0  0  0
 32 27  1  0  0  0  0
 32 23  2  0  0  0  0
 33 34  1  0  0  0  0
 34 36  1  0  0  0  0
 34 37  1  0  0  0  0
 35 33  2  0  0  0  0
M  END
>  <minimizedAffinity>
-8.02476215

$$$$
