
 OpenBabel10152419563D

 41 44  0  0  1  0  0  0  0  0999 V2000
   -1.2630   -8.0120  -24.2310 C   0  0  2  0  0  3  0  0  0  0  0  0
   -0.8600   -9.4350  -24.6180 C   0  0  0  0  0  0  0  0  0  0  0  0
   -1.3860  -10.1090  -25.7190 C   0  0  0  0  0  3  0  0  0  0  0  0
   -1.4210  -11.4960  -25.7180 C   0  0  0  0  0  3  0  0  0  0  0  0
   -0.7110  -12.2010  -24.7580 C   0  0  0  0  0  3  0  0  0  0  0  0
    0.1980  -11.5440  -23.9500 C   0  0  0  0  0  0  0  0  0  0  0  0
    0.0370  -10.1590  -23.7990 C   0  0  0  0  0  3  0  0  0  0  0  0
    1.2950  -12.1650  -23.3200 N   0  0  0  0  0  0  0  0  0  0  0  0
    2.5740  -12.4790  -23.7480 C   0  0  0  0  0  0  0  0  0  0  0  0
    3.3720  -12.9590  -22.9450 O   0  0  0  0  0  0  0  0  0  0  0  0
    1.2140  -12.3470  -22.3270 H   0  0  0  0  0  0  0  0  0  0  0  0
    3.0080  -12.3100  -25.1480 C   0  0  0  0  0  0  0  0  0  0  0  0
    2.0440  -12.5030  -26.1440 C   0  0  0  0  0  3  0  0  0  0  0  0
    2.3310  -12.1480  -27.4630 C   0  0  0  0  0  3  0  0  0  0  0  0
    3.5790  -11.6090  -27.7770 C   0  0  0  0  0  0  0  0  0  0  0  0
    3.9070  -10.9780  -29.5280 Br  0  0  0  0  0  0  0  0  0  0  0  0
    4.5720  -11.4960  -26.8020 C   0  0  0  0  0  3  0  0  0  0  0  0
    4.3000  -11.8840  -25.4850 C   0  0  0  0  0  3  0  0  0  0  0  0
   -0.3660   -6.8980  -24.5910 N   0  0  0  0  0  0  0  0  0  0  0  0
   -0.1440   -6.2610  -23.8270 H   0  0  0  0  0  0  0  0  0  0  0  0
    0.8340   -6.9380  -25.2750 C   0  0  0  0  0  0  0  0  0  0  0  0
    1.6540   -7.8180  -24.6780 N   0  0  0  0  0  0  0  0  0  0  0  0
    2.7170   -8.2110  -25.3770 C   0  0  0  0  0  3  0  0  0  0  0  0
    3.0010   -7.8390  -26.6260 N   0  0  0  0  0  0  0  0  0  0  0  0
    2.2230   -6.8970  -27.2060 C   0  0  0  0  0  0  0  0  0  0  0  0
    2.4140   -6.4970  -28.5430 C   0  0  0  0  0  0  0  0  0  0  0  0
    1.6420   -5.4660  -29.1090 C   0  0  0  0  0  3  0  0  0  0  0  0
    0.6520   -4.8340  -28.3700 C   0  0  0  0  0  3  0  0  0  0  0  0
    0.3910   -5.2730  -27.0770 C   0  0  0  0  0  3  0  0  0  0  0  0
    1.1400   -6.3270  -26.5010 C   0  0  0  0  0  0  0  0  0  0  0  0
    3.3590   -7.1860  -29.4780 C   0  0  0  0  0  0  0  0  0  0  0  0
    4.6490   -7.3830  -29.0820 N   0  0  0  0  0  0  0  0  0  0  0  0
    2.9850   -7.6100  -30.5670 O   0  0  0  0  0  0  0  0  0  0  0  0
    5.2830   -7.8690  -29.7020 H   0  0  0  0  0  0  0  0  0  0  0  0
    4.9880   -7.0310  -28.1920 H   0  0  0  0  0  0  0  0  0  0  0  0
   -1.5860   -7.9430  -22.7230 C   0  0  0  0  0  2  0  0  0  0  0  0
   -2.6850   -8.8870  -22.2220 C   0  0  0  0  0  2  0  0  0  0  0  0
   -2.1200  -11.0430  -21.0230 C   0  0  0  0  0  1  0  0  0  0  0  0
   -2.3750   -9.5660  -20.9060 N   0  0  0  0  0  4  0  0  0  0  0  0
   -1.2180   -8.8830  -20.2110 C   0  0  0  0  0  1  0  0  0  0  0  0
   -3.1820   -9.4260  -20.2790 H   0  0  0  0  0  0  0  0  0  0  0  0
  1 36  1  1  0  0  0
  2  1  1  0  0  0  0
  2  7  1  0  0  0  0
  3  4  1  0  0  0  0
  3  2  2  0  0  0  0
  4  5  2  0  0  0  0
  5  6  1  0  0  0  0
  6  7  2  0  0  0  0
  6  8  1  0  0  0  0
  8 11  1  0  0  0  0
  9  8  1  0  0  0  0
  9 10  2  0  0  0  0
 12  9  1  0  0  0  0
 13 12  2  0  0  0  0
 14 13  1  0  0  0  0
 15 14  2  0  0  0  0
 15 17  1  0  0  0  0
 16 15  1  0  0  0  0
 17 18  2  0  0  0  0
 18 12  1  0  0  0  0
 19  1  1  0  0  0  0
 19 20  1  0  0  0  0
 21 22  1  0  0  0  0
 21 19  1  0  0  0  0
 23 22  2  0  0  0  0
 24 23  1  0  0  0  0
 25 24  2  0  0  0  0
 25 30  1  0  0  0  0
 26 25  1  0  0  0  0
 27 26  2  0  0  0  0
 27 28  1  0  0  0  0
 28 29  2  0  0  0  0
 29 30  1  0  0  0  0
 30 21  2  0  0  0  0
 31 32  1  0  0  0  0
 31 26  1  0  0  0  0
 32 35  1  0  0  0  0
 33 31  2  0  0  0  0
 34 32  1  0  0  0  0
 36 37  1  0  0  0  0
 37 39  1  0  0  0  0
 38 39  1  0  0  0  0
 39 41  1  0  0  0  0
 39 40  1  0  0  0  0
M  END
>  <minimizedAffinity>
-8.64396667

$$$$

 OpenBabel10152419563D

 41 44  0  0  1  0  0  0  0  0999 V2000
   -0.4910   -7.7430  -24.4560 C   0  0  2  0  0  3  0  0  0  0  0  0
   -0.0590   -8.8840  -25.3760 C   0  0  0  0  0  0  0  0  0  0  0  0
   -0.7260   -9.2140  -26.5550 C   0  0  0  0  0  3  0  0  0  0  0  0
   -0.6540  -10.5120  -27.0410 C   0  0  0  0  0  3  0  0  0  0  0  0
    0.2700  -11.3950  -26.5060 C   0  0  0  0  0  3  0  0  0  0  0  0
    1.2600  -10.9330  -25.6590 C   0  0  0  0  0  0  0  0  0  0  0  0
    1.0250   -9.7140  -25.0060 C   0  0  0  0  0  3  0  0  0  0  0  0
    2.4970  -11.5750  -25.4560 N   0  0  0  0  0  0  0  0  0  0  0  0
    3.7640  -11.3670  -25.9750 C   0  0  0  0  0  0  0  0  0  0  0  0
    4.7010  -12.0420  -25.5530 O   0  0  0  0  0  0  0  0  0  0  0  0
    2.5410  -12.2700  -24.7190 H   0  0  0  0  0  0  0  0  0  0  0  0
    4.0300  -10.4010  -27.0580 C   0  0  0  0  0  0  0  0  0  0  0  0
    4.2140  -10.9180  -28.3460 C   0  0  0  0  0  3  0  0  0  0  0  0
    4.2510  -10.0530  -29.4400 C   0  0  0  0  0  3  0  0  0  0  0  0
    4.1120   -8.6790  -29.2390 C   0  0  0  0  0  0  0  0  0  0  0  0
    3.9980   -7.5260  -30.7330 Br  0  0  0  0  0  0  0  0  0  0  0  0
    4.0150   -8.1540  -27.9490 C   0  0  0  0  0  3  0  0  0  0  0  0
    4.0120   -9.0160  -26.8460 C   0  0  0  0  0  3  0  0  0  0  0  0
   -1.5460   -7.9970  -23.4570 N   0  0  0  0  0  0  0  0  0  0  0  0
   -2.4180   -8.3650  -23.8370 H   0  0  0  0  0  0  0  0  0  0  0  0
   -1.4580   -8.6790  -22.2590 C   0  0  0  0  0  0  0  0  0  0  0  0
   -1.7840   -7.8500  -21.2540 N   0  0  0  0  0  0  0  0  0  0  0  0
   -2.0560   -8.4170  -20.0790 C   0  0  0  0  0  3  0  0  0  0  0  0
   -2.0760   -9.7280  -19.8400 N   0  0  0  0  0  0  0  0  0  0  0  0
   -1.6770  -10.5650  -20.8240 C   0  0  0  0  0  0  0  0  0  0  0  0
   -1.7290  -11.9640  -20.6760 C   0  0  0  0  0  0  0  0  0  0  0  0
   -1.2440  -12.8200  -21.6820 C   0  0  0  0  0  3  0  0  0  0  0  0
   -0.7240  -12.3040  -22.8600 C   0  0  0  0  0  3  0  0  0  0  0  0
   -0.7420  -10.9280  -23.0610 C   0  0  0  0  0  3  0  0  0  0  0  0
   -1.2510  -10.0550  -22.0700 C   0  0  0  0  0  0  0  0  0  0  0  0
   -2.3820  -12.6410  -19.5100 C   0  0  0  0  0  0  0  0  0  0  0  0
   -3.7060  -12.9580  -19.5890 N   0  0  0  0  0  0  0  0  0  0  0  0
   -1.7400  -12.9520  -18.5110 O   0  0  0  0  0  0  0  0  0  0  0  0
   -4.1420  -13.4370  -18.8130 H   0  0  0  0  0  0  0  0  0  0  0  0
   -4.2620  -12.7010  -20.3990 H   0  0  0  0  0  0  0  0  0  0  0  0
   -0.8650   -6.5000  -25.2910 C   0  0  0  0  0  2  0  0  0  0  0  0
    0.2830   -5.8220  -26.0470 C   0  0  0  0  0  2  0  0  0  0  0  0
   -0.8380   -3.6270  -26.6210 C   0  0  0  0  0  1  0  0  0  0  0  0
   -0.1610   -4.8670  -27.1340 N   0  0  0  0  0  4  0  0  0  0  0  0
    1.0010   -4.5020  -28.0320 C   0  0  0  0  0  1  0  0  0  0  0  0
   -0.8230   -5.3680  -27.7460 H   0  0  0  0  0  0  0  0  0  0  0  0
  1 36  1  6  0  0  0
  1 19  1  0  0  0  0
  2  7  1  0  0  0  0
  2  1  1  0  0  0  0
  3  2  2  0  0  0  0
  4  3  1  0  0  0  0
  4  5  2  0  0  0  0
  5  6  1  0  0  0  0
  6  8  1  0  0  0  0
  6  7  2  0  0  0  0
  8 11  1  0  0  0  0
  9 10  2  0  0  0  0
  9  8  1  0  0  0  0
 12 18  1  0  0  0  0
 12  9  1  0  0  0  0
 13 12  2  0  0  0  0
 14 15  2  0  0  0  0
 14 13  1  0  0  0  0
 15 17  1  0  0  0  0
 16 15  1  0  0  0  0
 17 18  2  0  0  0  0
 19 21  1  0  0  0  0
 20 19  1  0  0  0  0
 21 30  2  0  0  0  0
 21 22  1  0  0  0  0
 22 23  2  0  0  0  0
 23 24  1  0  0  0  0
 25 26  1  0  0  0  0
 25 24  2  0  0  0  0
 26 31  1  0  0  0  0
 27 26  2  0  0  0  0
 28 27  1  0  0  0  0
 29 28  2  0  0  0  0
 29 30  1  0  0  0  0
 30 25  1  0  0  0  0
 31 33  2  0  0  0  0
 32 31  1  0  0  0  0
 32 34  1  0  0  0  0
 35 32  1  0  0  0  0
 37 36  1  0  0  0  0
 39 38  1  0  0  0  0
 39 37  1  0  0  0  0
 40 39  1  0  0  0  0
 41 39  1  0  0  0  0
M  END
>  <minimizedAffinity>
-8.16206169

$$$$

 OpenBabel10152419563D

 41 44  0  0  1  0  0  0  0  0999 V2000
    0.6830  -11.7840  -25.7310 C   0  0  2  0  0  3  0  0  0  0  0  0
    1.4940  -10.4900  -25.6620 C   0  0  0  0  0  0  0  0  0  0  0  0
    1.9070   -9.9050  -24.4660 C   0  0  0  0  0  3  0  0  0  0  0  0
    2.1360   -8.5370  -24.4160 C   0  0  0  0  0  3  0  0  0  0  0  0
    2.2040   -7.8100  -25.5940 C   0  0  0  0  0  3  0  0  0  0  0  0
    2.2680   -8.4650  -26.8100 C   0  0  0  0  0  0  0  0  0  0  0  0
    1.7960   -9.7850  -26.8500 C   0  0  0  0  0  3  0  0  0  0  0  0
    2.8200   -7.9130  -27.9820 N   0  0  0  0  0  0  0  0  0  0  0  0
    2.6350   -6.7060  -28.6340 C   0  0  0  0  0  0  0  0  0  0  0  0
    3.3240   -6.4470  -29.6200 O   0  0  0  0  0  0  0  0  0  0  0  0
    3.5830   -8.4210  -28.4160 H   0  0  0  0  0  0  0  0  0  0  0  0
    1.6040   -5.7320  -28.2270 C   0  0  0  0  0  0  0  0  0  0  0  0
    0.4850   -6.2310  -27.5490 C   0  0  0  0  0  3  0  0  0  0  0  0
   -0.4120   -5.3470  -26.9500 C   0  0  0  0  0  3  0  0  0  0  0  0
   -0.1890   -3.9710  -27.0370 C   0  0  0  0  0  0  0  0  0  0  0  0
   -1.3120   -2.7840  -26.0890 Br  0  0  0  0  0  0  0  0  0  0  0  0
    0.8780   -3.4690  -27.7860 C   0  0  0  0  0  3  0  0  0  0  0  0
    1.7600   -4.3520  -28.4180 C   0  0  0  0  0  3  0  0  0  0  0  0
   -0.1230  -12.1790  -24.5610 N   0  0  0  0  0  0  0  0  0  0  0  0
    0.3590  -12.7760  -23.8890 H   0  0  0  0  0  0  0  0  0  0  0  0
   -0.8860  -11.3850  -23.7260 C   0  0  0  0  0  0  0  0  0  0  0  0
   -0.9110  -11.9300  -22.4990 N   0  0  0  0  0  0  0  0  0  0  0  0
   -1.3300  -11.1450  -21.5080 C   0  0  0  0  0  3  0  0  0  0  0  0
   -1.6760   -9.8630  -21.6300 N   0  0  0  0  0  0  0  0  0  0  0  0
   -1.7250   -9.3290  -22.8720 C   0  0  0  0  0  0  0  0  0  0  0  0
   -2.0170   -7.9680  -23.0830 C   0  0  0  0  0  0  0  0  0  0  0  0
   -2.1340   -7.4440  -24.3830 C   0  0  0  0  0  3  0  0  0  0  0  0
   -1.9370   -8.2530  -25.4930 C   0  0  0  0  0  3  0  0  0  0  0  0
   -1.5640   -9.5790  -25.3050 C   0  0  0  0  0  3  0  0  0  0  0  0
   -1.4170  -10.1150  -24.0040 C   0  0  0  0  0  0  0  0  0  0  0  0
   -2.1240   -6.9700  -21.9710 C   0  0  0  0  0  0  0  0  0  0  0  0
   -2.7490   -7.3370  -20.8160 N   0  0  0  0  0  0  0  0  0  0  0  0
   -1.6260   -5.8530  -22.0660 O   0  0  0  0  0  0  0  0  0  0  0  0
   -2.8010   -6.6730  -20.0560 H   0  0  0  0  0  0  0  0  0  0  0  0
   -3.1810   -8.2500  -20.7170 H   0  0  0  0  0  0  0  0  0  0  0  0
    1.5940  -12.9590  -26.1470 C   0  0  0  0  0  2  0  0  0  0  0  0
    3.0160  -12.9490  -25.5760 C   0  0  0  0  0  2  0  0  0  0  0  0
    3.6520  -12.9270  -28.0260 C   0  0  0  0  0  1  0  0  0  0  0  0
    4.1020  -12.7220  -26.6060 N   0  0  0  0  0  4  0  0  0  0  0  0
    4.7200  -11.3520  -26.4400 C   0  0  0  0  0  1  0  0  0  0  0  0
    4.8680  -13.3850  -26.4110 H   0  0  0  0  0  0  0  0  0  0  0  0
  1 36  1  1  0  0  0
  1  2  1  0  0  0  0
  1 19  1  0  0  0  0
  2  3  1  0  0  0  0
  3  4  2  0  0  0  0
  5  4  1  0  0  0  0
  6  5  2  0  0  0  0
  7  6  1  0  0  0  0
  7  2  2  0  0  0  0
  8  6  1  0  0  0  0
  9 12  1  0  0  0  0
  9  8  1  0  0  0  0
 10  9  2  0  0  0  0
 11  8  1  0  0  0  0
 12 13  1  0  0  0  0
 13 14  2  0  0  0  0
 15 14  1  0  0  0  0
 15 16  1  0  0  0  0
 17 15  2  0  0  0  0
 18 12  2  0  0  0  0
 18 17  1  0  0  0  0
 19 20  1  0  0  0  0
 19 21  1  0  0  0  0
 21 22  1  0  0  0  0
 22 23  2  0  0  0  0
 24 23  1  0  0  0  0
 25 24  2  0  0  0  0
 26 25  1  0  0  0  0
 26 31  1  0  0  0  0
 27 26  2  0  0  0  0
 28 29  2  0  0  0  0
 28 27  1  0  0  0  0
 29 30  1  0  0  0  0
 30 21  2  0  0  0  0
 30 25  1  0  0  0  0
 31 32  1  0  0  0  0
 32 35  1  0  0  0  0
 32 34  1  0  0  0  0
 33 31  2  0  0  0  0
 36 37  1  0  0  0  0
 38 39  1  0  0  0  0
 39 40  1  0  0  0  0
 39 41  1  0  0  0  0
 39 37  1  0  0  0  0
M  END
>  <minimizedAffinity>
-7.75164175

$$$$

 OpenBabel10152419563D

 41 44  0  0  1  0  0  0  0  0999 V2000
    1.6690  -11.4680  -24.3610 C   0  0  2  0  0  3  0  0  0  0  0  0
    0.6500  -11.4980  -23.2220 C   0  0  0  0  0  0  0  0  0  0  0  0
    0.1880  -12.6750  -22.6360 C   0  0  0  0  0  3  0  0  0  0  0  0
   -1.0630  -12.6940  -22.0350 C   0  0  0  0  0  3  0  0  0  0  0  0
   -1.7280  -11.5020  -21.7950 C   0  0  0  0  0  3  0  0  0  0  0  0
   -1.0650  -10.2980  -21.9440 C   0  0  0  0  0  0  0  0  0  0  0  0
    0.0720  -10.2910  -22.7640 C   0  0  0  0  0  3  0  0  0  0  0  0
   -1.4260   -9.1060  -21.2870 N   0  0  0  0  0  0  0  0  0  0  0  0
   -1.6020   -7.8040  -21.7250 C   0  0  0  0  0  0  0  0  0  0  0  0
   -2.0060   -6.9550  -20.9320 O   0  0  0  0  0  0  0  0  0  0  0  0
   -1.7230   -9.1830  -20.3210 H   0  0  0  0  0  0  0  0  0  0  0  0
   -1.2720   -7.3750  -23.0980 C   0  0  0  0  0  0  0  0  0  0  0  0
   -2.1710   -7.7280  -24.1120 C   0  0  0  0  0  3  0  0  0  0  0  0
   -2.0320   -7.1730  -25.3840 C   0  0  0  0  0  3  0  0  0  0  0  0
   -0.9940   -6.2740  -25.6350 C   0  0  0  0  0  0  0  0  0  0  0  0
   -0.9050   -5.3980  -27.3080 Br  0  0  0  0  0  0  0  0  0  0  0  0
   -0.0460   -5.9870  -24.6510 C   0  0  0  0  0  3  0  0  0  0  0  0
   -0.1620   -6.5690  -23.3840 C   0  0  0  0  0  3  0  0  0  0  0  0
    2.1130  -10.1620  -24.8820 N   0  0  0  0  0  0  0  0  0  0  0  0
    2.3390   -9.4690  -24.1690 H   0  0  0  0  0  0  0  0  0  0  0  0
    3.0700   -9.8920  -25.8410 C   0  0  0  0  0  0  0  0  0  0  0  0
    3.9340  -10.9180  -25.9060 N   0  0  0  0  0  0  0  0  0  0  0  0
    4.7220  -10.9670  -26.9790 C   0  0  0  0  0  3  0  0  0  0  0  0
    4.6860  -10.1130  -28.0030 N   0  0  0  0  0  0  0  0  0  0  0  0
    3.8730   -9.0370  -27.9120 C   0  0  0  0  0  0  0  0  0  0  0  0
    3.7280   -8.1240  -28.9740 C   0  0  0  0  0  0  0  0  0  0  0  0
    2.9330   -6.9720  -28.8370 C   0  0  0  0  0  3  0  0  0  0  0  0
    2.2490   -6.7190  -27.6570 C   0  0  0  0  0  3  0  0  0  0  0  0
    2.3120   -7.6500  -26.6270 C   0  0  0  0  0  3  0  0  0  0  0  0
    3.0860   -8.8280  -26.7580 C   0  0  0  0  0  0  0  0  0  0  0  0
    4.3100   -8.3510  -30.3360 C   0  0  0  0  0  0  0  0  0  0  0  0
    4.3350   -9.6190  -30.8370 N   0  0  0  0  0  0  0  0  0  0  0  0
    4.7210   -7.4180  -31.0180 O   0  0  0  0  0  0  0  0  0  0  0  0
    4.7060   -9.7700  -31.7660 H   0  0  0  0  0  0  0  0  0  0  0  0
    4.0130  -10.4100  -30.2890 H   0  0  0  0  0  0  0  0  0  0  0  0
    1.1830  -12.3490  -25.5320 C   0  0  0  0  0  2  0  0  0  0  0  0
    0.4050  -11.6320  -26.6410 C   0  0  0  0  0  2  0  0  0  0  0  0
   -0.8950   -9.5300  -27.1870 C   0  0  0  0  0  1  0  0  0  0  0  0
   -0.5410  -10.5590  -26.1480 N   0  0  0  0  0  4  0  0  0  0  0  0
   -1.7940  -11.1760  -25.5670 C   0  0  0  0  0  1  0  0  0  0  0  0
   -0.0910  -10.0770  -25.3560 H   0  0  0  0  0  0  0  0  0  0  0  0
  1 36  1  6  0  0  0
  1  2  1  0  0  0  0
  2  7  2  0  0  0  0
  2  3  1  0  0  0  0
  3  4  2  0  0  0  0
  4  5  1  0  0  0  0
  6  5  2  0  0  0  0
  6  8  1  0  0  0  0
  7  6  1  0  0  0  0
  8 11  1  0  0  0  0
  9  8  1  0  0  0  0
  9 10  2  0  0  0  0
 12  9  1  0  0  0  0
 13 12  2  0  0  0  0
 14 13  1  0  0  0  0
 15 14  2  0  0  0  0
 15 17  1  0  0  0  0
 16 15  1  0  0  0  0
 17 18  2  0  0  0  0
 18 12  1  0  0  0  0
 19  1  1  0  0  0  0
 19 20  1  0  0  0  0
 21 19  1  0  0  0  0
 22 21  1  0  0  0  0
 23 22  2  0  0  0  0
 24 25  2  0  0  0  0
 24 23  1  0  0  0  0
 25 30  1  0  0  0  0
 26 27  2  0  0  0  0
 26 25  1  0  0  0  0
 27 28  1  0  0  0  0
 28 29  2  0  0  0  0
 30 29  1  0  0  0  0
 30 21  2  0  0  0  0
 31 26  1  0  0  0  0
 32 31  1  0  0  0  0
 32 35  1  0  0  0  0
 33 31  2  0  0  0  0
 34 32  1  0  0  0  0
 37 39  1  0  0  0  0
 37 36  1  0  0  0  0
 38 39  1  0  0  0  0
 39 40  1  0  0  0  0
 39 41  1  0  0  0  0
M  END
>  <minimizedAffinity>
-7.50974751

$$$$

 OpenBabel10152419563D

 41 44  0  0  1  0  0  0  0  0999 V2000
   -0.0090   -7.1950  -25.1350 C   0  0  2  0  0  3  0  0  0  0  0  0
   -1.1850   -7.7950  -24.3650 C   0  0  0  0  0  0  0  0  0  0  0  0
   -2.5170   -7.6120  -24.7340 C   0  0  0  0  0  3  0  0  0  0  0  0
   -3.5110   -7.6920  -23.7690 C   0  0  0  0  0  3  0  0  0  0  0  0
   -3.2100   -8.1970  -22.5140 C   0  0  0  0  0  3  0  0  0  0  0  0
   -1.9980   -8.8230  -22.2920 C   0  0  0  0  0  0  0  0  0  0  0  0
   -0.9500   -8.5180  -23.1730 C   0  0  0  0  0  3  0  0  0  0  0  0
   -1.7690   -9.7770  -21.2810 N   0  0  0  0  0  0  0  0  0  0  0  0
   -1.1560  -11.0190  -21.2780 C   0  0  0  0  0  0  0  0  0  0  0  0
   -1.0220  -11.6180  -20.2120 O   0  0  0  0  0  0  0  0  0  0  0  0
   -1.9900   -9.5050  -20.3310 H   0  0  0  0  0  0  0  0  0  0  0  0
   -0.7020  -11.6840  -22.5150 C   0  0  0  0  0  0  0  0  0  0  0  0
   -1.3820  -11.3710  -23.6970 C   0  0  0  0  0  3  0  0  0  0  0  0
   -0.8670  -11.7920  -24.9240 C   0  0  0  0  0  3  0  0  0  0  0  0
    0.3180  -12.5290  -24.9600 C   0  0  0  0  0  0  0  0  0  0  0  0
    1.0980  -12.9570  -26.6270 Br  0  0  0  0  0  0  0  0  0  0  0  0
    0.9510  -12.9170  -23.7770 C   0  0  0  0  0  3  0  0  0  0  0  0
    0.4200  -12.5250  -22.5430 C   0  0  0  0  0  3  0  0  0  0  0  0
    1.3600   -7.6010  -24.7670 N   0  0  0  0  0  0  0  0  0  0  0  0
    1.4400   -8.0840  -23.8730 H   0  0  0  0  0  0  0  0  0  0  0  0
    2.2990   -8.2710  -25.5280 C   0  0  0  0  0  0  0  0  0  0  0  0
    2.5580   -9.4610  -24.9610 N   0  0  0  0  0  0  0  0  0  0  0  0
    3.1910  -10.3550  -25.7180 C   0  0  0  0  0  3  0  0  0  0  0  0
    3.5410  -10.1800  -26.9930 N   0  0  0  0  0  0  0  0  0  0  0  0
    3.3510   -8.9610  -27.5470 C   0  0  0  0  0  0  0  0  0  0  0  0
    3.6320   -8.7110  -28.9040 C   0  0  0  0  0  0  0  0  0  0  0  0
    3.4960   -7.4200  -29.4470 C   0  0  0  0  0  3  0  0  0  0  0  0
    3.0560   -6.3640  -28.6620 C   0  0  0  0  0  3  0  0  0  0  0  0
    2.6920   -6.6080  -27.3430 C   0  0  0  0  0  3  0  0  0  0  0  0
    2.7980   -7.9070  -26.7880 C   0  0  0  0  0  0  0  0  0  0  0  0
    3.9900   -9.7890  -29.8800 C   0  0  0  0  0  0  0  0  0  0  0  0
    4.4750  -10.9720  -29.4040 N   0  0  0  0  0  0  0  0  0  0  0  0
    3.8170   -9.6430  -31.0860 O   0  0  0  0  0  0  0  0  0  0  0  0
    4.6940  -11.7100  -30.0600 H   0  0  0  0  0  0  0  0  0  0  0  0
    4.6400  -11.1150  -28.4130 H   0  0  0  0  0  0  0  0  0  0  0  0
   -0.1050   -5.6540  -25.1350 C   0  0  0  0  0  2  0  0  0  0  0  0
   -0.6000   -5.0070  -26.4330 C   0  0  0  0  0  2  0  0  0  0  0  0
    0.6680   -3.5460  -28.0660 C   0  0  0  0  0  1  0  0  0  0  0  0
   -0.0010   -3.6480  -26.7230 N   0  0  0  0  0  4  0  0  0  0  0  0
   -1.0420   -2.5600  -26.5680 C   0  0  0  0  0  1  0  0  0  0  0  0
    0.7020   -3.4480  -25.9960 H   0  0  0  0  0  0  0  0  0  0  0  0
  1 36  1  1  0  0  0
  1 19  1  0  0  0  0
  1  2  1  0  0  0  0
  2  7  1  0  0  0  0
  3  2  2  0  0  0  0
  3  4  1  0  0  0  0
  4  5  2  0  0  0  0
  5  6  1  0  0  0  0
  6  8  1  0  0  0  0
  7  6  2  0  0  0  0
  8  9  1  0  0  0  0
  8 11  1  0  0  0  0
  9 10  2  0  0  0  0
 12  9  1  0  0  0  0
 13 12  2  0  0  0  0
 14 13  1  0  0  0  0
 15 14  2  0  0  0  0
 15 17  1  0  0  0  0
 16 15  1  0  0  0  0
 17 18  2  0  0  0  0
 18 12  1  0  0  0  0
 19 20  1  0  0  0  0
 21 22  1  0  0  0  0
 21 19  1  0  0  0  0
 23 22  2  0  0  0  0
 24 23  1  0  0  0  0
 25 24  2  0  0  0  0
 25 30  1  0  0  0  0
 26 25  1  0  0  0  0
 27 26  2  0  0  0  0
 27 28  1  0  0  0  0
 28 29  2  0  0  0  0
 29 30  1  0  0  0  0
 30 21  2  0  0  0  0
 31 32  1  0  0  0  0
 31 26  1  0  0  0  0
 32 35  1  0  0  0  0
 33 31  2  0  0  0  0
 34 32  1  0  0  0  0
 37 36  1  0  0  0  0
 38 39  1  0  0  0  0
 39 40  1  0  0  0  0
 39 37  1  0  0  0  0
 39 41  1  0  0  0  0
M  END
>  <minimizedAffinity>
-7.35822821

$$$$

 OpenBabel10152419563D

 41 44  0  0  1  0  0  0  0  0999 V2000
    1.9780  -10.1410  -26.1110 C   0  0  2  0  0  3  0  0  0  0  0  0
    2.6990   -9.0660  -26.9250 C   0  0  0  0  0  0  0  0  0  0  0  0
    4.0780   -9.0540  -27.1290 C   0  0  0  0  0  3  0  0  0  0  0  0
    4.7220   -7.8500  -27.3760 C   0  0  0  0  0  3  0  0  0  0  0  0
    3.9750   -6.7200  -27.6710 C   0  0  0  0  0  3  0  0  0  0  0  0
    2.6240   -6.8340  -27.9380 C   0  0  0  0  0  0  0  0  0  0  0  0
    1.9700   -7.9750  -27.4520 C   0  0  0  0  0  3  0  0  0  0  0  0
    1.8840   -5.9120  -28.7060 N   0  0  0  0  0  0  0  0  0  0  0  0
    0.8460   -5.0500  -28.4000 C   0  0  0  0  0  0  0  0  0  0  0  0
    0.4310   -4.2820  -29.2660 O   0  0  0  0  0  0  0  0  0  0  0  0
    2.2040   -5.7390  -29.6510 H   0  0  0  0  0  0  0  0  0  0  0  0
    0.1730   -5.0490  -27.0860 C   0  0  0  0  0  0  0  0  0  0  0  0
    0.1210   -6.2640  -26.3930 C   0  0  0  0  0  3  0  0  0  0  0  0
   -0.3010   -6.2850  -25.0630 C   0  0  0  0  0  3  0  0  0  0  0  0
   -0.6740   -5.0940  -24.4380 C   0  0  0  0  0  0  0  0  0  0  0  0
   -1.0880   -5.1000  -22.5940 Br  0  0  0  0  0  0  0  0  0  0  0  0
   -0.7060   -3.8940  -25.1520 C   0  0  0  0  0  3  0  0  0  0  0  0
   -0.3160   -3.8750  -26.4960 C   0  0  0  0  0  3  0  0  0  0  0  0
    0.7940   -9.7570  -25.3200 N   0  0  0  0  0  0  0  0  0  0  0  0
    0.1390   -9.1400  -25.7990 H   0  0  0  0  0  0  0  0  0  0  0  0
   -0.0630  -10.5630  -24.5980 C   0  0  0  0  0  0  0  0  0  0  0  0
    0.0200  -11.8220  -25.0570 N   0  0  0  0  0  0  0  0  0  0  0  0
   -0.4930  -12.7750  -24.2810 C   0  0  0  0  0  3  0  0  0  0  0  0
   -1.0340  -12.5830  -23.0770 N   0  0  0  0  0  0  0  0  0  0  0  0
   -1.1890  -11.3130  -22.6400 C   0  0  0  0  0  0  0  0  0  0  0  0
   -1.6900  -11.0260  -21.3560 C   0  0  0  0  0  0  0  0  0  0  0  0
   -1.9130   -9.7000  -20.9430 C   0  0  0  0  0  3  0  0  0  0  0  0
   -1.6190   -8.6370  -21.7850 C   0  0  0  0  0  3  0  0  0  0  0  0
   -1.0430   -8.8960  -23.0240 C   0  0  0  0  0  3  0  0  0  0  0  0
   -0.7880  -10.2230  -23.4440 C   0  0  0  0  0  0  0  0  0  0  0  0
   -1.9260  -12.0760  -20.3140 C   0  0  0  0  0  0  0  0  0  0  0  0
   -0.8890  -12.8830  -19.9480 N   0  0  0  0  0  0  0  0  0  0  0  0
   -3.0140  -12.1920  -19.7590 O   0  0  0  0  0  0  0  0  0  0  0  0
   -1.0400  -13.5760  -19.2270 H   0  0  0  0  0  0  0  0  0  0  0  0
    0.0170  -12.8170  -20.4000 H   0  0  0  0  0  0  0  0  0  0  0  0
    2.9830  -10.8840  -25.2040 C   0  0  0  0  0  2  0  0  0  0  0  0
    3.0020  -12.4110  -25.3240 C   0  0  0  0  0  2  0  0  0  0  0  0
    2.3420  -12.6750  -27.7530 C   0  0  0  0  0  1  0  0  0  0  0  0
    3.3810  -12.9270  -26.6950 N   0  0  0  0  0  4  0  0  0  0  0  0
    4.7190  -12.3690  -27.1260 C   0  0  0  0  0  1  0  0  0  0  0  0
    3.5280  -13.9450  -26.6220 H   0  0  0  0  0  0  0  0  0  0  0  0
  1 19  1  0  0  0  0
  1 36  1  1  0  0  0
  2  1  1  0  0  0  0
  3  2  1  0  0  0  0
  4  3  2  0  0  0  0
  5  4  1  0  0  0  0
  6  5  2  0  0  0  0
  6  7  1  0  0  0  0
  7  2  2  0  0  0  0
  8  9  1  0  0  0  0
  8  6  1  0  0  0  0
  9 12  1  0  0  0  0
 10  9  2  0  0  0  0
 11  8  1  0  0  0  0
 12 18  2  0  0  0  0
 12 13  1  0  0  0  0
 13 14  2  0  0  0  0
 14 15  1  0  0  0  0
 15 16  1  0  0  0  0
 17 15  2  0  0  0  0
 18 17  1  0  0  0  0
 19 21  1  0  0  0  0
 20 19  1  0  0  0  0
 21 30  1  0  0  0  0
 22 21  2  0  0  0  0
 22 23  1  0  0  0  0
 23 24  2  0  0  0  0
 24 25  1  0  0  0  0
 25 26  1  0  0  0  0
 26 27  2  0  0  0  0
 26 31  1  0  0  0  0
 28 27  1  0  0  0  0
 29 28  2  0  0  0  0
 30 29  1  0  0  0  0
 30 25  2  0  0  0  0
 31 32  1  0  0  0  0
 31 33  2  0  0  0  0
 32 34  1  0  0  0  0
 35 32  1  0  0  0  0
 37 36  1  0  0  0  0
 38 39  1  0  0  0  0
 39 41  1  0  0  0  0
 39 37  1  0  0  0  0
 40 39  1  0  0  0  0
M  END
>  <minimizedAffinity>
-6.40507174

$$$$

 OpenBabel10152419563D

 41 44  0  0  1  0  0  0  0  0999 V2000
   -1.7070   -6.8300  -25.3540 C   0  0  2  0  0  3  0  0  0  0  0  0
   -2.7140   -7.3680  -24.3370 C   0  0  0  0  0  0  0  0  0  0  0  0
   -4.0020   -7.7800  -24.6770 C   0  0  0  0  0  3  0  0  0  0  0  0
   -5.0080   -7.7360  -23.7230 C   0  0  0  0  0  3  0  0  0  0  0  0
   -4.6830   -7.5310  -22.3910 C   0  0  0  0  0  3  0  0  0  0  0  0
   -3.3630   -7.5950  -21.9830 C   0  0  0  0  0  0  0  0  0  0  0  0
   -2.3800   -7.3950  -22.9630 C   0  0  0  0  0  3  0  0  0  0  0  0
   -2.9500   -7.8980  -20.6710 N   0  0  0  0  0  0  0  0  0  0  0  0
   -2.0870   -8.8470  -20.1500 C   0  0  0  0  0  0  0  0  0  0  0  0
   -1.8440   -8.8360  -18.9440 O   0  0  0  0  0  0  0  0  0  0  0  0
   -3.2390   -7.2610  -19.9380 H   0  0  0  0  0  0  0  0  0  0  0  0
   -1.4820   -9.9100  -20.9750 C   0  0  0  0  0  0  0  0  0  0  0  0
   -0.8140   -9.5150  -22.1400 C   0  0  0  0  0  3  0  0  0  0  0  0
   -0.0400  -10.4400  -22.8420 C   0  0  0  0  0  3  0  0  0  0  0  0
    0.0550  -11.7530  -22.3790 C   0  0  0  0  0  0  0  0  0  0  0  0
    1.2310  -12.9590  -23.2360 Br  0  0  0  0  0  0  0  0  0  0  0  0
   -0.6800  -12.1720  -21.2670 C   0  0  0  0  0  3  0  0  0  0  0  0
   -1.4840  -11.2560  -20.5810 C   0  0  0  0  0  3  0  0  0  0  0  0
   -1.1220   -7.7630  -26.3340 N   0  0  0  0  0  0  0  0  0  0  0  0
   -0.5350   -7.3280  -27.0450 H   0  0  0  0  0  0  0  0  0  0  0  0
   -0.4480   -8.9480  -26.1080 C   0  0  0  0  0  0  0  0  0  0  0  0
   -1.3300   -9.9600  -26.0820 N   0  0  0  0  0  0  0  0  0  0  0  0
   -0.8290  -11.1890  -26.1890 C   0  0  0  0  0  3  0  0  0  0  0  0
    0.4590  -11.4860  -26.3660 N   0  0  0  0  0  0  0  0  0  0  0  0
    1.3610  -10.4800  -26.3180 C   0  0  0  0  0  0  0  0  0  0  0  0
    2.7310  -10.6980  -26.5590 C   0  0  0  0  0  0  0  0  0  0  0  0
    3.6650   -9.6530  -26.4360 C   0  0  0  0  0  3  0  0  0  0  0  0
    3.2540   -8.3720  -26.0980 C   0  0  0  0  0  3  0  0  0  0  0  0
    1.8970   -8.1170  -25.9390 C   0  0  0  0  0  3  0  0  0  0  0  0
    0.9410   -9.1510  -26.0860 C   0  0  0  0  0  0  0  0  0  0  0  0
    3.2790  -12.0020  -27.0530 C   0  0  0  0  0  0  0  0  0  0  0  0
    2.9150  -12.4410  -28.2920 N   0  0  0  0  0  0  0  0  0  0  0  0
    4.0760  -12.6530  -26.3850 O   0  0  0  0  0  0  0  0  0  0  0  0
    3.3030  -13.3090  -28.6360 H   0  0  0  0  0  0  0  0  0  0  0  0
    2.2480  -11.9280  -28.8590 H   0  0  0  0  0  0  0  0  0  0  0  0
   -0.5740   -6.0710  -24.6290 C   0  0  0  0  0  2  0  0  0  0  0  0
   -0.4640   -4.5720  -24.9300 C   0  0  0  0  0  2  0  0  0  0  0  0
   -1.1240   -2.7310  -26.5360 C   0  0  0  0  0  1  0  0  0  0  0  0
   -0.8170   -4.1910  -26.3510 N   0  0  0  0  0  4  0  0  0  0  0  0
    0.2720   -4.6270  -27.3080 C   0  0  0  0  0  1  0  0  0  0  0  0
   -1.6480   -4.7340  -26.6290 H   0  0  0  0  0  0  0  0  0  0  0  0
  1 36  1  1  0  0  0
  1  2  1  0  0  0  0
  2  7  1  0  0  0  0
  3  2  2  0  0  0  0
  3  4  1  0  0  0  0
  4  5  2  0  0  0  0
  5  6  1  0  0  0  0
  6  8  1  0  0  0  0
  7  6  2  0  0  0  0
  8  9  1  0  0  0  0
  8 11  1  0  0  0  0
  9 10  2  0  0  0  0
 12 18  1  0  0  0  0
 12  9  1  0  0  0  0
 13 12  2  0  0  0  0
 14 15  2  0  0  0  0
 14 13  1  0  0  0  0
 15 17  1  0  0  0  0
 16 15  1  0  0  0  0
 17 18  2  0  0  0  0
 19 21  1  0  0  0  0
 19  1  1  0  0  0  0
 20 19  1  0  0  0  0
 21 30  2  0  0  0  0
 21 22  1  0  0  0  0
 23 22  2  0  0  0  0
 24 25  2  0  0  0  0
 24 23  1  0  0  0  0
 25 30  1  0  0  0  0
 26 27  2  0  0  0  0
 26 25  1  0  0  0  0
 27 28  1  0  0  0  0
 28 29  2  0  0  0  0
 30 29  1  0  0  0  0
 31 26  1  0  0  0  0
 31 33  2  0  0  0  0
 32 31  1  0  0  0  0
 34 32  1  0  0  0  0
 35 32  1  0  0  0  0
 37 36  1  0  0  0  0
 38 39  1  0  0  0  0
 39 37  1  0  0  0  0
 40 39  1  0  0  0  0
 41 39  1  0  0  0  0
M  END
>  <minimizedAffinity>
-6.06184006

$$$$

 OpenBabel10152419563D

 41 44  0  0  1  0  0  0  0  0999 V2000
   -0.1130   -6.7880  -26.5020 C   0  0  2  0  0  3  0  0  0  0  0  0
   -0.5810   -6.4040  -25.0980 C   0  0  0  0  0  0  0  0  0  0  0  0
   -0.5130   -5.1060  -24.5950 C   0  0  0  0  0  3  0  0  0  0  0  0
   -0.4270   -4.9080  -23.2240 C   0  0  0  0  0  3  0  0  0  0  0  0
   -0.6660   -5.9660  -22.3610 C   0  0  0  0  0  3  0  0  0  0  0  0
   -1.2010   -7.1450  -22.8440 C   0  0  0  0  0  0  0  0  0  0  0  0
   -1.0470   -7.4040  -24.2140 C   0  0  0  0  0  3  0  0  0  0  0  0
   -1.9300   -8.0650  -22.0650 N   0  0  0  0  0  0  0  0  0  0  0  0
   -1.9880   -9.4490  -22.0480 C   0  0  0  0  0  0  0  0  0  0  0  0
   -2.6670  -10.0080  -21.1880 O   0  0  0  0  0  0  0  0  0  0  0  0
   -2.4550   -7.6930  -21.2820 H   0  0  0  0  0  0  0  0  0  0  0  0
   -1.3080  -10.2860  -23.0550 C   0  0  0  0  0  0  0  0  0  0  0  0
   -1.8960  -10.3630  -24.3240 C   0  0  0  0  0  3  0  0  0  0  0  0
   -1.1960  -10.9540  -25.3760 C   0  0  0  0  0  3  0  0  0  0  0  0
    0.0830  -11.4680  -25.1520 C   0  0  0  0  0  0  0  0  0  0  0  0
    1.0930  -12.1190  -26.6110 Br  0  0  0  0  0  0  0  0  0  0  0  0
    0.6360  -11.4700  -23.8700 C   0  0  0  0  0  3  0  0  0  0  0  0
   -0.0780  -10.9090  -22.8040 C   0  0  0  0  0  3  0  0  0  0  0  0
    1.3140   -6.6340  -26.8400 N   0  0  0  0  0  0  0  0  0  0  0  0
    1.7940   -5.8810  -26.3480 H   0  0  0  0  0  0  0  0  0  0  0  0
    2.3010   -7.6000  -26.8940 C   0  0  0  0  0  0  0  0  0  0  0  0
    2.3430   -8.2550  -25.7230 N   0  0  0  0  0  0  0  0  0  0  0  0
    3.0080   -9.4090  -25.7090 C   0  0  0  0  0  3  0  0  0  0  0  0
    3.5870   -9.9800  -26.7670 N   0  0  0  0  0  0  0  0  0  0  0  0
    3.6140   -9.2920  -27.9310 C   0  0  0  0  0  0  0  0  0  0  0  0
    4.1460   -9.8490  -29.1090 C   0  0  0  0  0  0  0  0  0  0  0  0
    4.2320   -9.0950  -30.2940 C   0  0  0  0  0  3  0  0  0  0  0  0
    3.7660   -7.7880  -30.3370 C   0  0  0  0  0  3  0  0  0  0  0  0
    3.1590   -7.2500  -29.2090 C   0  0  0  0  0  3  0  0  0  0  0  0
    3.0420   -8.0040  -28.0160 C   0  0  0  0  0  0  0  0  0  0  0  0
    4.5630  -11.2830  -29.2240 C   0  0  0  0  0  0  0  0  0  0  0  0
    4.7210  -12.0150  -28.0840 N   0  0  0  0  0  0  0  0  0  0  0  0
    4.7190  -11.8170  -30.3170 O   0  0  0  0  0  0  0  0  0  0  0  0
    4.9780  -12.9900  -28.1600 H   0  0  0  0  0  0  0  0  0  0  0  0
    4.6100  -11.5940  -27.1670 H   0  0  0  0  0  0  0  0  0  0  0  0
   -0.9720   -6.0690  -27.5640 C   0  0  0  0  0  2  0  0  0  0  0  0
   -0.3380   -4.8440  -28.2310 C   0  0  0  0  0  2  0  0  0  0  0  0
    1.3480   -3.0390  -27.6750 C   0  0  0  0  0  1  0  0  0  0  0  0
    0.0910   -3.7580  -27.2680 N   0  0  0  0  0  4  0  0  0  0  0  0
   -1.0320   -2.7710  -27.0400 C   0  0  0  0  0  1  0  0  0  0  0  0
    0.2510   -4.1950  -26.3480 H   0  0  0  0  0  0  0  0  0  0  0  0
  1 36  1  6  0  0  0
  1  2  1  0  0  0  0
  2  3  2  0  0  0  0
  2  7  1  0  0  0  0
  3  4  1  0  0  0  0
  4  5  2  0  0  0  0
  6  5  1  0  0  0  0
  6  8  1  0  0  0  0
  7  6  2  0  0  0  0
  8  9  1  0  0  0  0
  8 11  1  0  0  0  0
  9 10  2  0  0  0  0
 12 18  1  0  0  0  0
 12  9  1  0  0  0  0
 13 12  2  0  0  0  0
 14 15  2  0  0  0  0
 14 13  1  0  0  0  0
 15 17  1  0  0  0  0
 16 15  1  0  0  0  0
 17 18  2  0  0  0  0
 19  1  1  0  0  0  0
 19 20  1  0  0  0  0
 21 19  1  0  0  0  0
 21 22  1  0  0  0  0
 22 23  2  0  0  0  0
 24 23  1  0  0  0  0
 25 24  2  0  0  0  0
 26 25  1  0  0  0  0
 27 26  2  0  0  0  0
 28 27  1  0  0  0  0
 28 29  2  0  0  0  0
 29 30  1  0  0  0  0
 30 25  1  0  0  0  0
 30 21  2  0  0  0  0
 31 26  1  0  0  0  0
 31 32  1  0  0  0  0
 32 35  1  0  0  0  0
 33 31  2  0  0  0  0
 34 32  1  0  0  0  0
 37 36  1  0  0  0  0
 37 39  1  0  0  0  0
 38 39  1  0  0  0  0
 39 40  1  0  0  0  0
 39 41  1  0  0  0  0
M  END
>  <minimizedAffinity>
-6.00620222

$$$$

 OpenBabel10152419563D

 41 44  0  0  1  0  0  0  0  0999 V2000
    3.3240  -10.0750  -26.5450 C   0  0  2  0  0  3  0  0  0  0  0  0
    3.2870   -8.6950  -27.2020 C   0  0  0  0  0  0  0  0  0  0  0  0
    4.4320   -7.9760  -27.5430 C   0  0  0  0  0  3  0  0  0  0  0  0
    4.3740   -6.5920  -27.6150 C   0  0  0  0  0  3  0  0  0  0  0  0
    3.1430   -5.9550  -27.6020 C   0  0  0  0  0  3  0  0  0  0  0  0
    1.9810   -6.6910  -27.7420 C   0  0  0  0  0  0  0  0  0  0  0  0
    2.0460   -8.0550  -27.4240 C   0  0  0  0  0  3  0  0  0  0  0  0
    0.7660   -6.1720  -28.2300 N   0  0  0  0  0  0  0  0  0  0  0  0
   -0.4190   -5.8050  -27.6140 C   0  0  0  0  0  0  0  0  0  0  0  0
   -1.3120   -5.2960  -28.2880 O   0  0  0  0  0  0  0  0  0  0  0  0
    0.7380   -5.9040  -29.2070 H   0  0  0  0  0  0  0  0  0  0  0  0
   -0.6790   -6.0500  -26.1820 C   0  0  0  0  0  0  0  0  0  0  0  0
   -1.8830   -6.6810  -25.8490 C   0  0  0  0  0  3  0  0  0  0  0  0
   -2.0900   -7.1340  -24.5460 C   0  0  0  0  0  3  0  0  0  0  0  0
   -1.0950   -6.9490  -23.5840 C   0  0  0  0  0  0  0  0  0  0  0  0
   -1.3080   -7.7080  -21.8660 Br  0  0  0  0  0  0  0  0  0  0  0  0
    0.0710   -6.2440  -23.8910 C   0  0  0  0  0  3  0  0  0  0  0  0
    0.2670   -5.7570  -25.1890 C   0  0  0  0  0  3  0  0  0  0  0  0
    2.9490  -10.1930  -25.1230 N   0  0  0  0  0  0  0  0  0  0  0  0
    2.5590   -9.3470  -24.7100 H   0  0  0  0  0  0  0  0  0  0  0  0
    2.2000  -11.1750  -24.5040 C   0  0  0  0  0  0  0  0  0  0  0  0
    3.0220  -12.1160  -24.0130 N   0  0  0  0  0  0  0  0  0  0  0  0
    2.4990  -12.9580  -23.1240 C   0  0  0  0  0  3  0  0  0  0  0  0
    1.2510  -12.9110  -22.6550 N   0  0  0  0  0  0  0  0  0  0  0  0
    0.3970  -12.0160  -23.1990 C   0  0  0  0  0  0  0  0  0  0  0  0
   -0.9170  -11.8560  -22.7170 C   0  0  0  0  0  0  0  0  0  0  0  0
   -1.8160  -10.9710  -23.3390 C   0  0  0  0  0  3  0  0  0  0  0  0
   -1.4200  -10.2110  -24.4300 C   0  0  0  0  0  3  0  0  0  0  0  0
   -0.1030  -10.2910  -24.8670 C   0  0  0  0  0  3  0  0  0  0  0  0
    0.8210  -11.1570  -24.2360 C   0  0  0  0  0  0  0  0  0  0  0  0
   -1.4210  -12.5230  -21.4740 C   0  0  0  0  0  0  0  0  0  0  0  0
   -0.5230  -12.8960  -20.5170 N   0  0  0  0  0  0  0  0  0  0  0  0
   -2.6210  -12.6980  -21.2850 O   0  0  0  0  0  0  0  0  0  0  0  0
   -0.8640  -13.3240  -19.6670 H   0  0  0  0  0  0  0  0  0  0  0  0
    0.4750  -12.7740  -20.6540 H   0  0  0  0  0  0  0  0  0  0  0  0
    4.7030  -10.7330  -26.7680 C   0  0  0  0  0  2  0  0  0  0  0  0
    4.7200  -11.9850  -27.6520 C   0  0  0  0  0  2  0  0  0  0  0  0
    3.6520  -12.9280  -29.7440 C   0  0  0  0  0  1  0  0  0  0  0  0
    3.4460  -12.2150  -28.4360 N   0  0  0  0  0  4  0  0  0  0  0  0
    2.4230  -12.9440  -27.5930 C   0  0  0  0  0  1  0  0  0  0  0  0
    3.0230  -11.2960  -28.6320 H   0  0  0  0  0  0  0  0  0  0  0  0
  1 36  1  1  0  0  0
  1 19  1  0  0  0  0
  2  1  1  0  0  0  0
  3  2  2  0  0  0  0
  4  5  2  0  0  0  0
  4  3  1  0  0  0  0
  6  5  1  0  0  0  0
  6  7  2  0  0  0  0
  7  2  1  0  0  0  0
  8  6  1  0  0  0  0
  8  9  1  0  0  0  0
  9 12  1  0  0  0  0
 10  9  2  0  0  0  0
 11  8  1  0  0  0  0
 12 13  2  0  0  0  0
 12 18  1  0  0  0  0
 13 14  1  0  0  0  0
 14 15  2  0  0  0  0
 15 16  1  0  0  0  0
 17 15  1  0  0  0  0
 18 17  2  0  0  0  0
 19 20  1  0  0  0  0
 19 21  1  0  0  0  0
 21 30  2  0  0  0  0
 21 22  1  0  0  0  0
 22 23  2  0  0  0  0
 23 24  1  0  0  0  0
 25 26  1  0  0  0  0
 25 24  2  0  0  0  0
 26 31  1  0  0  0  0
 27 26  2  0  0  0  0
 28 27  1  0  0  0  0
 29 28  2  0  0  0  0
 29 30  1  0  0  0  0
 30 25  1  0  0  0  0
 31 33  2  0  0  0  0
 31 32  1  0  0  0  0
 32 34  1  0  0  0  0
 35 32  1  0  0  0  0
 37 36  1  0  0  0  0
 38 39  1  0  0  0  0
 39 37  1  0  0  0  0
 39 40  1  0  0  0  0
 41 39  1  0  0  0  0
M  END
>  <minimizedAffinity>
-5.9433322

$$$$
