
 OpenBabel10152419563D

 41 44  0  0  1  0  0  0  0  0999 V2000
    0.6830  -11.7840  -25.7310 C   0  0  2  0  0  3  0  0  0  0  0  0
    1.4940  -10.4900  -25.6620 C   0  0  0  0  0  0  0  0  0  0  0  0
    1.9070   -9.9050  -24.4660 C   0  0  0  0  0  3  0  0  0  0  0  0
    2.1360   -8.5370  -24.4160 C   0  0  0  0  0  3  0  0  0  0  0  0
    2.2040   -7.8100  -25.5940 C   0  0  0  0  0  3  0  0  0  0  0  0
    2.2680   -8.4650  -26.8100 C   0  0  0  0  0  0  0  0  0  0  0  0
    1.7960   -9.7850  -26.8500 C   0  0  0  0  0  3  0  0  0  0  0  0
    2.8200   -7.9130  -27.9820 N   0  0  0  0  0  0  0  0  0  0  0  0
    2.6350   -6.7060  -28.6340 C   0  0  0  0  0  0  0  0  0  0  0  0
    3.3240   -6.4470  -29.6200 O   0  0  0  0  0  0  0  0  0  0  0  0
    3.5830   -8.4210  -28.4160 H   0  0  0  0  0  0  0  0  0  0  0  0
    1.6040   -5.7320  -28.2270 C   0  0  0  0  0  0  0  0  0  0  0  0
    0.4850   -6.2310  -27.5490 C   0  0  0  0  0  3  0  0  0  0  0  0
   -0.4120   -5.3470  -26.9500 C   0  0  0  0  0  3  0  0  0  0  0  0
   -0.1890   -3.9710  -27.0370 C   0  0  0  0  0  0  0  0  0  0  0  0
   -1.3120   -2.7840  -26.0890 Br  0  0  0  0  0  0  0  0  0  0  0  0
    0.8780   -3.4690  -27.7860 C   0  0  0  0  0  3  0  0  0  0  0  0
    1.7600   -4.3520  -28.4180 C   0  0  0  0  0  3  0  0  0  0  0  0
   -0.1230  -12.1790  -24.5610 N   0  0  0  0  0  0  0  0  0  0  0  0
    0.3590  -12.7760  -23.8890 H   0  0  0  0  0  0  0  0  0  0  0  0
   -0.8860  -11.3850  -23.7260 C   0  0  0  0  0  0  0  0  0  0  0  0
   -0.9110  -11.9300  -22.4990 N   0  0  0  0  0  0  0  0  0  0  0  0
   -1.3300  -11.1450  -21.5080 C   0  0  0  0  0  3  0  0  0  0  0  0
   -1.6760   -9.8630  -21.6300 N   0  0  0  0  0  0  0  0  0  0  0  0
   -1.7250   -9.3290  -22.8720 C   0  0  0  0  0  0  0  0  0  0  0  0
   -2.0170   -7.9680  -23.0830 C   0  0  0  0  0  0  0  0  0  0  0  0
   -2.1340   -7.4440  -24.3830 C   0  0  0  0  0  3  0  0  0  0  0  0
   -1.9370   -8.2530  -25.4930 C   0  0  0  0  0  3  0  0  0  0  0  0
   -1.5640   -9.5790  -25.3050 C   0  0  0  0  0  3  0  0  0  0  0  0
   -1.4170  -10.1150  -24.0040 C   0  0  0  0  0  0  0  0  0  0  0  0
   -2.1240   -6.9700  -21.9710 C   0  0  0  0  0  0  0  0  0  0  0  0
   -2.7490   -7.3370  -20.8160 N   0  0  0  0  0  0  0  0  0  0  0  0
   -1.6260   -5.8530  -22.0660 O   0  0  0  0  0  0  0  0  0  0  0  0
   -2.8010   -6.6730  -20.0560 H   0  0  0  0  0  0  0  0  0  0  0  0
   -3.1810   -8.2500  -20.7170 H   0  0  0  0  0  0  0  0  0  0  0  0
    1.5940  -12.9590  -26.1470 C   0  0  0  0  0  2  0  0  0  0  0  0
    3.0160  -12.9490  -25.5760 C   0  0  0  0  0  2  0  0  0  0  0  0
    3.6520  -12.9270  -28.0260 C   0  0  0  0  0  1  0  0  0  0  0  0
    4.1020  -12.7220  -26.6060 N   0  0  0  0  0  4  0  0  0  0  0  0
    4.7200  -11.3520  -26.4400 C   0  0  0  0  0  1  0  0  0  0  0  0
    4.8680  -13.3850  -26.4110 H   0  0  0  0  0  0  0  0  0  0  0  0
  1 36  1  1  0  0  0
  1  2  1  0  0  0  0
  1 19  1  0  0  0  0
  2  3  1  0  0  0  0
  3  4  2  0  0  0  0
  5  4  1  0  0  0  0
  6  5  2  0  0  0  0
  7  6  1  0  0  0  0
  7  2  2  0  0  0  0
  8  6  1  0  0  0  0
  9 12  1  0  0  0  0
  9  8  1  0  0  0  0
 10  9  2  0  0  0  0
 11  8  1  0  0  0  0
 12 13  1  0  0  0  0
 13 14  2  0  0  0  0
 15 14  1  0  0  0  0
 15 16  1  0  0  0  0
 17 15  2  0  0  0  0
 18 12  2  0  0  0  0
 18 17  1  0  0  0  0
 19 20  1  0  0  0  0
 19 21  1  0  0  0  0
 21 22  1  0  0  0  0
 22 23  2  0  0  0  0
 24 23  1  0  0  0  0
 25 24  2  0  0  0  0
 26 25  1  0  0  0  0
 26 31  1  0  0  0  0
 27 26  2  0  0  0  0
 28 29  2  0  0  0  0
 28 27  1  0  0  0  0
 29 30  1  0  0  0  0
 30 21  2  0  0  0  0
 30 25  1  0  0  0  0
 31 32  1  0  0  0  0
 32 35  1  0  0  0  0
 32 34  1  0  0  0  0
 33 31  2  0  0  0  0
 36 37  1  0  0  0  0
 38 39  1  0  0  0  0
 39 40  1  0  0  0  0
 39 41  1  0  0  0  0
 39 37  1  0  0  0  0
M  END
>  <minimizedAffinity>
-7.75164175

$$$$
