
 OpenBabel10152419553D

 34 37  0  0  1  0  0  0  0  0999 V2000
   -0.6970   -5.2860  -23.9530 C   0  0  0  0  0  1  0  0  0  0  0  0
   -0.0230   -6.6630  -24.0480 C   0  0  2  0  0  3  0  0  0  0  0  0
    0.8700   -6.8000  -25.2780 C   0  0  0  0  0  0  0  0  0  0  0  0
    0.5510   -6.2670  -26.5310 C   0  0  0  0  0  3  0  0  0  0  0  0
    1.2500   -6.6810  -27.6690 C   0  0  0  0  0  3  0  0  0  0  0  0
    2.2410   -7.6640  -27.5760 C   0  0  0  0  0  3  0  0  0  0  0  0
    2.6310   -8.1410  -26.3340 C   0  0  0  0  0  0  0  0  0  0  0  0
    1.9800   -7.6560  -25.1950 C   0  0  0  0  0  3  0  0  0  0  0  0
    3.4860   -9.2230  -26.1170 N   0  0  0  0  0  0  0  0  0  0  0  0
    4.1390  -10.1170  -26.8880 C   0  0  0  0  0  0  0  0  0  0  0  0
    4.4150  -11.1900  -26.3300 O   0  0  0  0  0  0  0  0  0  0  0  0
    3.5490   -9.5220  -25.1490 H   0  0  0  0  0  0  0  0  0  0  0  0
    4.6580   -9.8730  -28.2970 C   0  0  0  0  0  3  0  0  0  0  0  0
    3.8820  -10.2980  -29.5350 C   0  0  0  0  0  2  0  0  0  0  0  0
    4.4040   -9.3780  -30.6270 C   0  0  0  0  0  2  0  0  0  0  0  0
    4.5560   -8.0320  -29.9510 C   0  0  0  0  0  2  0  0  0  0  0  0
    4.7210   -8.3350  -28.4670 C   0  0  0  0  0  2  0  0  0  0  0  0
   -1.0830   -7.6930  -23.9950 N   0  0  0  0  0  0  0  0  0  0  0  0
   -0.9530   -8.4050  -24.7110 H   0  0  0  0  0  0  0  0  0  0  0  0
   -1.3930   -8.3910  -22.8350 C   0  0  0  0  0  0  0  0  0  0  0  0
   -2.1320   -7.6580  -21.9900 N   0  0  0  0  0  0  0  0  0  0  0  0
   -2.6390   -8.3000  -20.9420 C   0  0  0  0  0  3  0  0  0  0  0  0
   -2.4760   -9.5950  -20.6540 N   0  0  0  0  0  0  0  0  0  0  0  0
   -1.6720  -10.3260  -21.4580 C   0  0  0  0  0  0  0  0  0  0  0  0
   -1.4250  -11.6940  -21.2220 C   0  0  0  0  0  0  0  0  0  0  0  0
   -0.5520  -12.4330  -22.0440 C   0  0  0  0  0  3  0  0  0  0  0  0
    0.1060  -11.8240  -23.1010 C   0  0  0  0  0  3  0  0  0  0  0  0
   -0.1360  -10.4790  -23.3590 C   0  0  0  0  0  3  0  0  0  0  0  0
   -1.0490   -9.7310  -22.5750 C   0  0  0  0  0  0  0  0  0  0  0  0
   -2.0580  -12.4620  -20.1020 C   0  0  0  0  0  0  0  0  0  0  0  0
   -3.3670  -12.8260  -20.2250 N   0  0  0  0  0  0  0  0  0  0  0  0
   -1.4320  -12.7650  -19.0950 O   0  0  0  0  0  0  0  0  0  0  0  0
   -3.7990  -13.3530  -19.4810 H   0  0  0  0  0  0  0  0  0  0  0  0
   -3.9140  -12.5390  -21.0320 H   0  0  0  0  0  0  0  0  0  0  0  0
  2 18  1  0  0  0  0
  2  1  1  6  0  0  0
  3  8  1  0  0  0  0
  3  2  1  0  0  0  0
  4  3  2  0  0  0  0
  5  6  2  0  0  0  0
  5  4  1  0  0  0  0
  6  7  1  0  0  0  0
  7  9  1  0  0  0  0
  7  8  2  0  0  0  0
  9 12  1  0  0  0  0
 10 11  2  0  0  0  0
 10  9  1  0  0  0  0
 13 10  1  0  0  0  0
 14 13  1  0  0  0  0
 15 16  1  0  0  0  0
 15 14  1  0  0  0  0
 16 17  1  0  0  0  0
 17 13  1  0  0  0  0
 18 20  1  0  0  0  0
 19 18  1  0  0  0  0
 20 29  2  0  0  0  0
 20 21  1  0  0  0  0
 21 22  2  0  0  0  0
 22 23  1  0  0  0  0
 24 25  1  0  0  0  0
 24 23  2  0  0  0  0
 25 30  1  0  0  0  0
 26 25  2  0  0  0  0
 27 26  1  0  0  0  0
 28 27  2  0  0  0  0
 28 29  1  0  0  0  0
 29 24  1  0  0  0  0
 30 32  2  0  0  0  0
 31 30  1  0  0  0  0
 31 33  1  0  0  0  0
 34 31  1  0  0  0  0
M  END
>  <minimizedAffinity>
-8.0545578

$$$$
