
 OpenBabel10152419553D

 34 37  0  0  1  0  0  0  0  0999 V2000
   -0.7090   -5.3240  -23.3390 C   0  0  0  0  0  1  0  0  0  0  0  0
   -0.1200   -6.6230  -23.9090 C   0  0  2  0  0  3  0  0  0  0  0  0
    0.4510   -6.4470  -25.3130 C   0  0  0  0  0  0  0  0  0  0  0  0
   -0.2440   -5.8350  -26.3620 C   0  0  0  0  0  3  0  0  0  0  0  0
    0.2060   -5.9750  -27.6780 C   0  0  0  0  0  3  0  0  0  0  0  0
    1.3240   -6.7640  -27.9670 C   0  0  0  0  0  3  0  0  0  0  0  0
    2.0750   -7.3070  -26.9360 C   0  0  0  0  0  0  0  0  0  0  0  0
    1.6610   -7.0890  -25.6180 C   0  0  0  0  0  3  0  0  0  0  0  0
    3.1090   -8.2330  -27.0920 N   0  0  0  0  0  0  0  0  0  0  0  0
    3.4370   -9.4250  -26.5520 C   0  0  0  0  0  0  0  0  0  0  0  0
    4.6430   -9.7100  -26.5990 O   0  0  0  0  0  0  0  0  0  0  0  0
    3.8950   -7.8970  -27.6390 H   0  0  0  0  0  0  0  0  0  0  0  0
    2.4610  -10.4670  -26.0260 C   0  0  0  0  0  3  0  0  0  0  0  0
    1.2200  -10.8840  -26.8000 C   0  0  0  0  0  2  0  0  0  0  0  0
    0.9060  -12.2730  -26.2680 C   0  0  0  0  0  2  0  0  0  0  0  0
    2.2590  -12.9350  -26.1090 C   0  0  0  0  0  2  0  0  0  0  0  0
    3.2570  -11.7950  -25.9510 C   0  0  0  0  0  2  0  0  0  0  0  0
   -1.1690   -7.6630  -23.8460 N   0  0  0  0  0  0  0  0  0  0  0  0
   -1.0430   -8.3700  -24.5670 H   0  0  0  0  0  0  0  0  0  0  0  0
   -1.4570   -8.3690  -22.6850 C   0  0  0  0  0  0  0  0  0  0  0  0
   -2.1880   -7.6450  -21.8250 N   0  0  0  0  0  0  0  0  0  0  0  0
   -2.6750   -8.2960  -20.7730 C   0  0  0  0  0  3  0  0  0  0  0  0
   -2.4980   -9.5920  -20.4950 N   0  0  0  0  0  0  0  0  0  0  0  0
   -1.7020  -10.3130  -21.3150 C   0  0  0  0  0  0  0  0  0  0  0  0
   -1.4420  -11.6810  -21.0890 C   0  0  0  0  0  0  0  0  0  0  0  0
   -0.5770  -12.4090  -21.9280 C   0  0  0  0  0  3  0  0  0  0  0  0
    0.0610  -11.7900  -22.9910 C   0  0  0  0  0  3  0  0  0  0  0  0
   -0.1940  -10.4450  -23.2390 C   0  0  0  0  0  3  0  0  0  0  0  0
   -1.1000   -9.7080  -22.4370 C   0  0  0  0  0  0  0  0  0  0  0  0
   -2.0530  -12.4580  -19.9630 C   0  0  0  0  0  0  0  0  0  0  0  0
   -3.4020  -12.6650  -19.9760 N   0  0  0  0  0  0  0  0  0  0  0  0
   -1.3750  -12.9050  -19.0470 O   0  0  0  0  0  0  0  0  0  0  0  0
   -3.8200  -13.1980  -19.2280 H   0  0  0  0  0  0  0  0  0  0  0  0
   -3.9840  -12.2580  -20.7020 H   0  0  0  0  0  0  0  0  0  0  0  0
  2 18  1  0  0  0  0
  2  1  1  6  0  0  0
  3  2  1  0  0  0  0
  4  3  2  0  0  0  0
  5  4  1  0  0  0  0
  6  5  2  0  0  0  0
  6  7  1  0  0  0  0
  7  8  2  0  0  0  0
  8  3  1  0  0  0  0
  9  7  1  0  0  0  0
  9 10  1  0  0  0  0
 10 13  1  0  0  0  0
 11 10  2  0  0  0  0
 12  9  1  0  0  0  0
 13 17  1  0  0  0  0
 14 15  1  0  0  0  0
 14 13  1  0  0  0  0
 15 16  1  0  0  0  0
 16 17  1  0  0  0  0
 18 20  1  0  0  0  0
 19 18  1  0  0  0  0
 20 29  2  0  0  0  0
 20 21  1  0  0  0  0
 21 22  2  0  0  0  0
 22 23  1  0  0  0  0
 24 25  1  0  0  0  0
 24 23  2  0  0  0  0
 25 30  1  0  0  0  0
 26 25  2  0  0  0  0
 27 26  1  0  0  0  0
 28 27  2  0  0  0  0
 28 29  1  0  0  0  0
 29 24  1  0  0  0  0
 30 32  2  0  0  0  0
 31 30  1  0  0  0  0
 31 33  1  0  0  0  0
 34 31  1  0  0  0  0
M  END
>  <minimizedAffinity>
-9.01451588

$$$$
