
 OpenBabel10152419553D

 34 37  0  0  1  0  0  0  0  0999 V2000
    2.2910  -12.0400  -23.5940 C   0  0  0  0  0  1  0  0  0  0  0  0
    1.7530  -12.7650  -24.8360 C   0  0  2  0  0  3  0  0  0  0  0  0
    2.2910  -12.1830  -26.1400 C   0  0  0  0  0  0  0  0  0  0  0  0
    2.6500  -12.9600  -27.2460 C   0  0  0  0  0  3  0  0  0  0  0  0
    3.4080  -12.4010  -28.2800 C   0  0  0  0  0  3  0  0  0  0  0  0
    3.8550  -11.0780  -28.1990 C   0  0  0  0  0  3  0  0  0  0  0  0
    3.4380  -10.2680  -27.1550 C   0  0  0  0  0  0  0  0  0  0  0  0
    2.6100  -10.8160  -26.1700 C   0  0  0  0  0  3  0  0  0  0  0  0
    3.9320   -8.9920  -26.8760 N   0  0  0  0  0  0  0  0  0  0  0  0
    3.5780   -7.7250  -27.1760 C   0  0  0  0  0  0  0  0  0  0  0  0
    4.5040   -6.8990  -27.1470 O   0  0  0  0  0  0  0  0  0  0  0  0
    4.8580   -8.9800  -26.4620 H   0  0  0  0  0  0  0  0  0  0  0  0
    2.1610   -7.2230  -27.4100 C   0  0  0  0  0  3  0  0  0  0  0  0
    1.3820   -6.4610  -26.3500 C   0  0  0  0  0  2  0  0  0  0  0  0
    0.3580   -5.6680  -27.1470 C   0  0  0  0  0  2  0  0  0  0  0  0
    1.1140   -5.1940  -28.3710 C   0  0  0  0  0  2  0  0  0  0  0  0
    2.2620   -6.1790  -28.5510 C   0  0  0  0  0  2  0  0  0  0  0  0
    0.2750  -12.7440  -24.7700 N   0  0  0  0  0  0  0  0  0  0  0  0
   -0.1060  -13.6650  -24.5650 H   0  0  0  0  0  0  0  0  0  0  0  0
   -0.4260  -11.8660  -23.9530 C   0  0  0  0  0  0  0  0  0  0  0  0
   -0.5710  -12.3460  -22.7090 N   0  0  0  0  0  0  0  0  0  0  0  0
   -1.0580  -11.5010  -21.8050 C   0  0  0  0  0  3  0  0  0  0  0  0
   -1.4170  -10.2320  -22.0230 N   0  0  0  0  0  0  0  0  0  0  0  0
   -1.3450   -9.7620  -23.2880 C   0  0  0  0  0  0  0  0  0  0  0  0
   -1.7210   -8.4430  -23.6160 C   0  0  0  0  0  0  0  0  0  0  0  0
   -1.6800   -7.9790  -24.9450 C   0  0  0  0  0  3  0  0  0  0  0  0
   -1.2850   -8.8200  -25.9730 C   0  0  0  0  0  3  0  0  0  0  0  0
   -0.8960  -10.1200  -25.6680 C   0  0  0  0  0  3  0  0  0  0  0  0
   -0.8820  -10.5900  -24.3310 C   0  0  0  0  0  0  0  0  0  0  0  0
   -2.1840   -7.4440  -22.6000 C   0  0  0  0  0  0  0  0  0  0  0  0
   -3.1320   -7.8310  -21.6970 N   0  0  0  0  0  0  0  0  0  0  0  0
   -1.7360   -6.3060  -22.5650 O   0  0  0  0  0  0  0  0  0  0  0  0
   -3.4410   -7.1680  -21.0010 H   0  0  0  0  0  0  0  0  0  0  0  0
   -3.5500   -8.7550  -21.7440 H   0  0  0  0  0  0  0  0  0  0  0  0
  2 18  1  0  0  0  0
  2  1  1  1  0  0  0
  3  2  1  0  0  0  0
  4  3  2  0  0  0  0
  5  6  2  0  0  0  0
  5  4  1  0  0  0  0
  6  7  1  0  0  0  0
  7  9  1  0  0  0  0
  7  8  2  0  0  0  0
  8  3  1  0  0  0  0
  9 12  1  0  0  0  0
 10 11  2  0  0  0  0
 10  9  1  0  0  0  0
 13 10  1  0  0  0  0
 13 14  1  0  0  0  0
 15 14  1  0  0  0  0
 16 15  1  0  0  0  0
 17 16  1  0  0  0  0
 17 13  1  0  0  0  0
 18 19  1  0  0  0  0
 18 20  1  0  0  0  0
 20 21  1  0  0  0  0
 21 22  2  0  0  0  0
 23 22  1  0  0  0  0
 24 23  2  0  0  0  0
 25 24  1  0  0  0  0
 25 30  1  0  0  0  0
 26 25  2  0  0  0  0
 27 28  2  0  0  0  0
 27 26  1  0  0  0  0
 28 29  1  0  0  0  0
 29 20  2  0  0  0  0
 29 24  1  0  0  0  0
 30 32  2  0  0  0  0
 30 31  1  0  0  0  0
 31 33  1  0  0  0  0
 34 31  1  0  0  0  0
M  END
>  <minimizedAffinity>
-8.76424122

$$$$
