
 OpenBabel10152419553D

 34 37  0  0  1  0  0  0  0  0999 V2000
   -0.0290   -9.6910  -26.5110 C   0  0  0  0  0  1  0  0  0  0  0  0
    1.3910   -9.8080  -25.9380 C   0  0  2  0  0  3  0  0  0  0  0  0
    1.4860  -10.8140  -24.7940 C   0  0  0  0  0  0  0  0  0  0  0  0
    2.4330  -11.8420  -24.7420 C   0  0  0  0  0  3  0  0  0  0  0  0
    2.2770  -12.8950  -23.8350 C   0  0  0  0  0  3  0  0  0  0  0  0
    1.1520  -12.9580  -23.0060 C   0  0  0  0  0  3  0  0  0  0  0  0
    0.2480  -11.9070  -22.9820 C   0  0  0  0  0  0  0  0  0  0  0  0
    0.4610  -10.8190  -23.8340 C   0  0  0  0  0  3  0  0  0  0  0  0
   -0.9840  -11.9170  -22.3240 N   0  0  0  0  0  0  0  0  0  0  0  0
   -1.6900  -11.0500  -21.5690 C   0  0  0  0  0  0  0  0  0  0  0  0
   -2.5030  -11.5720  -20.7910 O   0  0  0  0  0  0  0  0  0  0  0  0
   -1.4230  -12.8300  -22.2660 H   0  0  0  0  0  0  0  0  0  0  0  0
   -1.6610   -9.5340  -21.6840 C   0  0  0  0  0  3  0  0  0  0  0  0
   -2.6470   -8.7650  -22.5500 C   0  0  0  0  0  2  0  0  0  0  0  0
   -2.6710   -7.3760  -21.9320 C   0  0  0  0  0  2  0  0  0  0  0  0
   -2.6280   -7.6230  -20.4380 C   0  0  0  0  0  2  0  0  0  0  0  0
   -1.9840   -8.9930  -20.2680 C   0  0  0  0  0  2  0  0  0  0  0  0
    1.8360   -8.4540  -25.5440 N   0  0  0  0  0  0  0  0  0  0  0  0
    2.6290   -8.1400  -26.0990 H   0  0  0  0  0  0  0  0  0  0  0  0
    0.9720   -7.3670  -25.4930 C   0  0  0  0  0  0  0  0  0  0  0  0
    0.2690   -7.3370  -24.3510 N   0  0  0  0  0  0  0  0  0  0  0  0
   -0.4410   -6.2360  -24.1250 C   0  0  0  0  0  3  0  0  0  0  0  0
   -0.5200   -5.1690  -24.9270 N   0  0  0  0  0  0  0  0  0  0  0  0
    0.1240   -5.2190  -26.1140 C   0  0  0  0  0  0  0  0  0  0  0  0
    0.0790   -4.1500  -27.0320 C   0  0  0  0  0  0  0  0  0  0  0  0
    0.7210   -4.2330  -28.2830 C   0  0  0  0  0  3  0  0  0  0  0  0
    1.4000   -5.3840  -28.6530 C   0  0  0  0  0  3  0  0  0  0  0  0
    1.4670   -6.4440  -27.7550 C   0  0  0  0  0  3  0  0  0  0  0  0
    0.8710   -6.3600  -26.4710 C   0  0  0  0  0  0  0  0  0  0  0  0
   -0.6370   -2.8620  -26.7610 C   0  0  0  0  0  0  0  0  0  0  0  0
   -0.0480   -1.6980  -27.1600 N   0  0  0  0  0  0  0  0  0  0  0  0
   -1.7220   -2.8360  -26.1970 O   0  0  0  0  0  0  0  0  0  0  0  0
   -0.5290   -0.8260  -26.9930 H   0  0  0  0  0  0  0  0  0  0  0  0
    0.8740   -1.6990  -27.5840 H   0  0  0  0  0  0  0  0  0  0  0  0
  2  1  1  1  0  0  0
  2 18  1  0  0  0  0
  2  3  1  0  0  0  0
  3  4  2  0  0  0  0
  3  8  1  0  0  0  0
  4  5  1  0  0  0  0
  5  6  2  0  0  0  0
  6  7  1  0  0  0  0
  7  9  1  0  0  0  0
  8  7  2  0  0  0  0
  9 12  1  0  0  0  0
  9 10  1  0  0  0  0
 10 11  2  0  0  0  0
 13 10  1  0  0  0  0
 13 17  1  0  0  0  0
 14 15  1  0  0  0  0
 14 13  1  0  0  0  0
 15 16  1  0  0  0  0
 16 17  1  0  0  0  0
 18 20  1  0  0  0  0
 19 18  1  0  0  0  0
 20 21  1  0  0  0  0
 21 22  2  0  0  0  0
 23 22  1  0  0  0  0
 24 23  2  0  0  0  0
 25 30  1  0  0  0  0
 25 24  1  0  0  0  0
 26 25  2  0  0  0  0
 27 26  1  0  0  0  0
 27 28  2  0  0  0  0
 28 29  1  0  0  0  0
 29 24  1  0  0  0  0
 29 20  2  0  0  0  0
 30 32  2  0  0  0  0
 31 33  1  0  0  0  0
 31 30  1  0  0  0  0
 34 31  1  0  0  0  0
M  END
>  <minimizedAffinity>
-8.07928467

$$$$
