REMARK  Name = 
REMARK  7 active torsions:
REMARK  status: ('A' for Active; 'I' for Inactive)
REMARK    1  A    between atoms: C_1  and  C_2
REMARK    2  A    between atoms: C_2  and  N_3
REMARK    3  A    between atoms: C_2  and  C_17
REMARK    4  A    between atoms: N_3  and  C_4
REMARK    5  A    between atoms: C_9  and  C_10
REMARK    6  A    between atoms: C_21  and  N_22
REMARK    7  A    between atoms: C_23  and  C_25
REMARK                            x       y       z     vdW  Elec       q    Type
REMARK                         _______ _______ _______ _____ _____    ______ ____
ROOT
ATOM      1  C   UNL     1       1.527  -0.474  -0.520  0.00  0.00    +0.033 C 
ATOM      2  C   UNL     1       0.536  -1.636  -0.357  0.00  0.00    +0.099 C 
ENDROOT
BRANCH   2   3
ATOM      3  C   UNL     1      -0.874  -1.166  -0.009  0.00  0.00    -0.026 A 
ATOM      4  C   UNL     1      -1.147  -0.140   0.901  0.00  0.00    +0.005 A 
ATOM      5  C   UNL     1      -2.443   0.034   1.395  0.00  0.00    +0.002 A 
ATOM      6  C   UNL     1      -3.469  -0.842   1.024  0.00  0.00    +0.023 A 
ATOM      7  C   UNL     1      -3.239  -1.810   0.059  0.00  0.00    +0.034 A 
ATOM      8  C   UNL     1      -1.957  -1.919  -0.490  0.00  0.00    +0.028 A 
BRANCH   7   9
ATOM      9  N   UNL     1      -4.123  -2.836  -0.282  0.00  0.00    -0.285 N 
ATOM     10  C   UNL     1      -5.441  -3.077  -0.124  0.00  0.00    +0.220 C 
ATOM     11  O   UNL     1      -5.762  -4.275  -0.140  0.00  0.00    -0.275 OA
ATOM     12  H   UNL     1      -3.675  -3.685  -0.612  0.00  0.00    +0.155 HD
BRANCH  10  13
ATOM     13  C   UNL     1      -6.541  -2.028  -0.060  0.00  0.00    +0.075 C 
ATOM     14  C   UNL     1      -6.284  -0.560  -0.363  0.00  0.00    +0.013 C 
ATOM     15  C   UNL     1      -7.648  -0.026  -0.770  0.00  0.00    +0.001 C 
ATOM     16  C   UNL     1      -8.255  -1.132  -1.608  0.00  0.00    +0.001 C 
ATOM     17  C   UNL     1      -7.560  -2.412  -1.162  0.00  0.00    +0.013 C 
ENDBRANCH  10  13
ENDBRANCH   7   9
ENDBRANCH   2   3
BRANCH   2  18
ATOM     18  N   UNL     1       1.090  -2.568   0.649  0.00  0.00    -0.322 N 
ATOM     19  H   UNL     1       1.729  -2.098   1.287  0.00  0.00    +0.148 HD
BRANCH  18  20
ATOM     20  C   UNL     1       0.287  -3.365   1.455  0.00  0.00    +0.130 A 
ATOM     21  N   UNL     1       0.362  -3.009   2.746  0.00  0.00    -0.220 NA
ATOM     22  C   UNL     1      -0.512  -3.584   3.567  0.00  0.00    +0.223 A 
ATOM     23  N   UNL     1      -1.445  -4.479   3.226  0.00  0.00    -0.235 NA
ATOM     24  C   UNL     1      -1.480  -4.900   1.942  0.00  0.00    +0.088 A 
ATOM     25  C   UNL     1      -2.416  -5.856   1.496  0.00  0.00    +0.063 A 
ATOM     26  C   UNL     1      -2.414  -6.316   0.165  0.00  0.00    +0.015 A 
ATOM     27  C   UNL     1      -1.472  -5.852  -0.740  0.00  0.00    +0.002 A 
ATOM     28  C   UNL     1      -0.550  -4.898  -0.323  0.00  0.00    +0.013 A 
ATOM     29  C   UNL     1      -0.568  -4.385   0.998  0.00  0.00    +0.041 A 
BRANCH  25  30
ATOM     30  C   UNL     1      -3.470  -6.449   2.380  0.00  0.00    +0.244 C 
ATOM     31  N   UNL     1      -3.652  -5.911   3.621  0.00  0.00    -0.325 N 
ATOM     32  O   UNL     1      -4.161  -7.391   2.016  0.00  0.00    -0.270 OA
ATOM     33  H   UNL     1      -4.368  -6.296   4.219  0.00  0.00    +0.145 HD
ATOM     34  H   UNL     1      -3.054  -5.162   3.957  0.00  0.00    +0.145 HD
ENDBRANCH  25  30
ENDBRANCH  18  20
ENDBRANCH   2  18
TORSDOF 6
