
 OpenBabel10152418393D

 32 35  0  0  0  0  0  0  0  0999 V2000
   -1.3880  -11.0190  -21.8220 C   0  0  0  0  0  0  0  0  0  0  0  0
   -1.0310  -12.0250  -22.7330 C   0  0  0  0  0  3  0  0  0  0  0  0
   -0.6760  -11.6790  -24.0250 C   0  0  0  0  0  3  0  0  0  0  0  0
   -0.6730  -10.3350  -24.3890 C   0  0  0  0  0  3  0  0  0  0  0  0
   -1.0180   -9.3110  -23.4620 C   0  0  0  0  0  0  0  0  0  0  0  0
   -1.0000   -7.9310  -23.7590 C   0  0  0  0  0  0  0  0  0  0  0  0
   -0.6070   -7.4860  -25.0160 N   0  0  0  0  0  0  0  0  0  0  0  0
   -1.3820   -7.0090  -22.8610 N   0  0  0  0  0  0  0  0  0  0  0  0
   -1.7260   -7.4490  -21.6500 C   0  0  0  0  0  3  0  0  0  0  0  0
   -1.7250   -8.7210  -21.2490 N   0  0  0  0  0  0  0  0  0  0  0  0
   -1.3950   -9.6580  -22.1540 C   0  0  0  0  0  0  0  0  0  0  0  0
    0.1050   -8.0270  -25.4850 H   0  0  0  0  0  0  0  0  0  0  0  0
   -0.8030  -12.0390  -19.7250 N   0  0  0  0  0  0  0  0  0  0  0  0
   -1.7860  -11.4490  -20.4690 C   0  0  0  0  0  0  0  0  0  0  0  0
   -2.9350  -11.3440  -20.0610 O   0  0  0  0  0  0  0  0  0  0  0  0
   -1.0450  -12.3470  -18.7920 H   0  0  0  0  0  0  0  0  0  0  0  0
    0.1560  -12.1160  -20.0330 H   0  0  0  0  0  0  0  0  0  0  0  0
   -0.6290   -6.0700  -25.3430 C   0  0  0  0  0  2  0  0  0  0  0  0
    0.3140   -5.8230  -26.4990 C   0  0  0  0  0  0  0  0  0  0  0  0
    0.1950   -4.6910  -27.3090 C   0  0  0  0  0  3  0  0  0  0  0  0
    1.0730   -4.5020  -28.3750 C   0  0  0  0  0  3  0  0  0  0  0  0
    2.0680   -5.4470  -28.6460 C   0  0  0  0  0  3  0  0  0  0  0  0
    2.2060   -6.5950  -27.8630 C   0  0  0  0  0  0  0  0  0  0  0  0
    1.3310   -6.7550  -26.7800 C   0  0  0  0  0  3  0  0  0  0  0  0
    3.1810   -7.5770  -28.0780 N   0  0  0  0  0  0  0  0  0  0  0  0
    3.6150   -8.2970  -29.1860 C   0  0  0  0  0  0  0  0  0  0  0  0
    3.4920   -7.8420  -30.4940 C   0  0  0  0  0  3  0  0  0  0  0  0
    3.9570   -8.6340  -31.5440 C   0  0  0  0  0  3  0  0  0  0  0  0
    4.5380   -9.8620  -31.2620 C   0  0  0  0  0  3  0  0  0  0  0  0
    4.6440  -10.2350  -29.9350 C   0  0  0  0  0  3  0  0  0  0  0  0
    4.2080   -9.4790  -28.9030 N   0  0  0  0  0  0  0  0  0  0  0  0
    3.5220   -8.0320  -27.2380 H   0  0  0  0  0  0  0  0  0  0  0  0
  1 14  1  0  0  0  0
  2  1  2  0  0  0  0
  3  2  1  0  0  0  0
  4  3  2  0  0  0  0
  4  5  1  0  0  0  0
  5 11  1  0  0  0  0
  6  5  2  0  0  0  0
  6  8  1  0  0  0  0
  7  6  1  0  0  0  0
  8  9  2  0  0  0  0
  9 10  1  0  0  0  0
 11  1  1  0  0  0  0
 11 10  2  0  0  0  0
 12  7  1  0  0  0  0
 13 16  1  0  0  0  0
 14 15  2  0  0  0  0
 14 13  1  0  0  0  0
 17 13  1  0  0  0  0
 18  7  1  0  0  0  0
 19 18  1  0  0  0  0
 20 19  2  0  0  0  0
 21 20  1  0  0  0  0
 22 21  2  0  0  0  0
 22 23  1  0  0  0  0
 23 24  2  0  0  0  0
 24 19  1  0  0  0  0
 25 23  1  0  0  0  0
 25 32  1  0  0  0  0
 26 31  1  0  0  0  0
 26 25  1  0  0  0  0
 27 26  2  0  0  0  0
 28 29  2  0  0  0  0
 28 27  1  0  0  0  0
 29 30  1  0  0  0  0
 30 31  2  0  0  0  0
M  END
>  <minimizedAffinity>
-10.2598515

$$$$
