
 OpenBabel10152418393D

 32 35  0  0  0  0  0  0  0  0999 V2000
   -1.2340  -11.1700  -21.5720 C   0  0  0  0  0  0  0  0  0  0  0  0
   -0.2340  -11.9950  -22.1110 C   0  0  0  0  0  3  0  0  0  0  0  0
    0.4400  -11.5910  -23.2510 C   0  0  0  0  0  3  0  0  0  0  0  0
    0.1160  -10.3680  -23.8310 C   0  0  0  0  0  3  0  0  0  0  0  0
   -0.8850   -9.5220  -23.2770 C   0  0  0  0  0  0  0  0  0  0  0  0
   -1.2350   -8.2570  -23.7980 C   0  0  0  0  0  0  0  0  0  0  0  0
   -0.5750   -7.7470  -24.9100 N   0  0  0  0  0  0  0  0  0  0  0  0
   -2.2220   -7.5210  -23.2650 N   0  0  0  0  0  0  0  0  0  0  0  0
   -2.8240   -8.0090  -22.1790 C   0  0  0  0  0  3  0  0  0  0  0  0
   -2.5350   -9.1620  -21.5750 N   0  0  0  0  0  0  0  0  0  0  0  0
   -1.5850   -9.9340  -22.1300 C   0  0  0  0  0  0  0  0  0  0  0  0
    0.4010   -7.9870  -25.0070 H   0  0  0  0  0  0  0  0  0  0  0  0
   -3.2800  -11.8860  -20.5320 N   0  0  0  0  0  0  0  0  0  0  0  0
   -1.9400  -11.6650  -20.3760 C   0  0  0  0  0  0  0  0  0  0  0  0
   -1.3790  -11.8090  -19.2980 O   0  0  0  0  0  0  0  0  0  0  0  0
   -3.7930  -12.2250  -19.7290 H   0  0  0  0  0  0  0  0  0  0  0  0
   -3.7580  -11.7960  -21.4170 H   0  0  0  0  0  0  0  0  0  0  0  0
   -0.9600   -6.4660  -25.4790 C   0  0  0  0  0  2  0  0  0  0  0  0
    0.0760   -6.0570  -26.5030 C   0  0  0  0  0  0  0  0  0  0  0  0
    0.0440   -4.8000  -27.1110 C   0  0  0  0  0  3  0  0  0  0  0  0
    1.0050   -4.4630  -28.0620 C   0  0  0  0  0  3  0  0  0  0  0  0
    1.9990   -5.3810  -28.4200 C   0  0  0  0  0  3  0  0  0  0  0  0
    2.0500   -6.6510  -27.8380 C   0  0  0  0  0  0  0  0  0  0  0  0
    1.0910   -6.9630  -26.8660 C   0  0  0  0  0  3  0  0  0  0  0  0
    3.0180   -7.6140  -28.1490 N   0  0  0  0  0  0  0  0  0  0  0  0
    3.3040   -8.8950  -27.6900 C   0  0  0  0  0  0  0  0  0  0  0  0
    2.3550   -9.7360  -27.1180 C   0  0  0  0  0  3  0  0  0  0  0  0
    2.7350  -11.0060  -26.6850 C   0  0  0  0  0  3  0  0  0  0  0  0
    4.0530  -11.4090  -26.8370 C   0  0  0  0  0  3  0  0  0  0  0  0
    4.9320  -10.5250  -27.4350 C   0  0  0  0  0  3  0  0  0  0  0  0
    4.5830   -9.2940  -27.8690 N   0  0  0  0  0  0  0  0  0  0  0  0
    3.8180   -7.2650  -28.6640 H   0  0  0  0  0  0  0  0  0  0  0  0
  1 14  1  0  0  0  0
  2  1  1  0  0  0  0
  3  2  2  0  0  0  0
  4  5  2  0  0  0  0
  4  3  1  0  0  0  0
  5 11  1  0  0  0  0
  6  5  1  0  0  0  0
  6  8  2  0  0  0  0
  7  6  1  0  0  0  0
  8  9  1  0  0  0  0
  9 10  2  0  0  0  0
 11 10  1  0  0  0  0
 11  1  2  0  0  0  0
 12  7  1  0  0  0  0
 13 14  1  0  0  0  0
 13 16  1  0  0  0  0
 14 15  2  0  0  0  0
 17 13  1  0  0  0  0
 18  7  1  0  0  0  0
 19 18  1  0  0  0  0
 20 19  2  0  0  0  0
 21 20  1  0  0  0  0
 22 21  2  0  0  0  0
 22 23  1  0  0  0  0
 23 24  2  0  0  0  0
 24 19  1  0  0  0  0
 25 23  1  0  0  0  0
 25 26  1  0  0  0  0
 26 27  1  0  0  0  0
 27 28  2  0  0  0  0
 29 28  1  0  0  0  0
 30 29  2  0  0  0  0
 31 26  2  0  0  0  0
 31 30  1  0  0  0  0
 32 25  1  0  0  0  0
M  END
>  <minimizedAffinity>
-8.22991943

$$$$
