
 OpenBabel10152418393D

 32 35  0  0  0  0  0  0  0  0999 V2000
    0.0180   -6.1530  -25.6270 C   0  0  0  0  0  0  0  0  0  0  0  0
   -0.8000   -5.3170  -26.4020 C   0  0  0  0  0  3  0  0  0  0  0  0
   -0.4210   -5.0030  -27.6960 C   0  0  0  0  0  3  0  0  0  0  0  0
    0.7640   -5.5320  -28.2010 C   0  0  0  0  0  3  0  0  0  0  0  0
    1.5870   -6.3930  -27.4230 C   0  0  0  0  0  0  0  0  0  0  0  0
    2.7790   -6.9880  -27.8890 C   0  0  0  0  0  0  0  0  0  0  0  0
    3.2120   -6.7710  -29.1920 N   0  0  0  0  0  0  0  0  0  0  0  0
    3.5450   -7.7540  -27.0960 N   0  0  0  0  0  0  0  0  0  0  0  0
    3.1000   -7.9800  -25.8590 C   0  0  0  0  0  3  0  0  0  0  0  0
    1.9650   -7.5140  -25.3380 N   0  0  0  0  0  0  0  0  0  0  0  0
    1.2160   -6.7030  -26.1030 C   0  0  0  0  0  0  0  0  0  0  0  0
    2.4950   -6.6580  -29.8940 H   0  0  0  0  0  0  0  0  0  0  0  0
    0.1550   -5.6530  -23.2790 N   0  0  0  0  0  0  0  0  0  0  0  0
   -0.4210   -6.4290  -24.2460 C   0  0  0  0  0  0  0  0  0  0  0  0
   -1.2000   -7.3330  -23.9760 O   0  0  0  0  0  0  0  0  0  0  0  0
   -0.1240   -5.8190  -22.3210 H   0  0  0  0  0  0  0  0  0  0  0  0
    0.7830   -4.8880  -23.4810 H   0  0  0  0  0  0  0  0  0  0  0  0
    4.4610   -7.3430  -29.6650 C   0  0  0  0  0  2  0  0  0  0  0  0
    4.3030   -8.8450  -29.7610 C   0  0  0  0  0  0  0  0  0  0  0  0
    4.3190   -9.5020  -30.9930 C   0  0  0  0  0  3  0  0  0  0  0  0
    4.1550  -10.8860  -31.0450 C   0  0  0  0  0  3  0  0  0  0  0  0
    3.9660  -11.6200  -29.8690 C   0  0  0  0  0  3  0  0  0  0  0  0
    3.9340  -10.9900  -28.6220 C   0  0  0  0  0  0  0  0  0  0  0  0
    4.1250   -9.6020  -28.5870 C   0  0  0  0  0  3  0  0  0  0  0  0
    3.7510  -11.6650  -27.4100 N   0  0  0  0  0  0  0  0  0  0  0  0
    2.8170  -11.5920  -26.3810 C   0  0  0  0  0  0  0  0  0  0  0  0
    1.5180  -11.1300  -26.5550 C   0  0  0  0  0  3  0  0  0  0  0  0
    0.6500  -11.0920  -25.4630 C   0  0  0  0  0  3  0  0  0  0  0  0
    1.1010  -11.5200  -24.2240 C   0  0  0  0  0  3  0  0  0  0  0  0
    2.3990  -11.9850  -24.1350 C   0  0  0  0  0  3  0  0  0  0  0  0
    3.2530  -12.0390  -25.1820 N   0  0  0  0  0  0  0  0  0  0  0  0
    4.5610  -12.1790  -27.0800 H   0  0  0  0  0  0  0  0  0  0  0  0
  1 14  1  0  0  0  0
  2  1  2  0  0  0  0
  3  2  1  0  0  0  0
  4  3  2  0  0  0  0
  4  5  1  0  0  0  0
  5 11  1  0  0  0  0
  6  5  2  0  0  0  0
  6  8  1  0  0  0  0
  7  6  1  0  0  0  0
  8  9  2  0  0  0  0
  9 10  1  0  0  0  0
 11  1  1  0  0  0  0
 11 10  2  0  0  0  0
 12  7  1  0  0  0  0
 13 16  1  0  0  0  0
 14 15  2  0  0  0  0
 14 13  1  0  0  0  0
 17 13  1  0  0  0  0
 18  7  1  0  0  0  0
 19 18  1  0  0  0  0
 19 24  1  0  0  0  0
 20 19  2  0  0  0  0
 21 20  1  0  0  0  0
 21 22  2  0  0  0  0
 22 23  1  0  0  0  0
 23 24  2  0  0  0  0
 23 25  1  0  0  0  0
 25 32  1  0  0  0  0
 25 26  1  0  0  0  0
 26 31  1  0  0  0  0
 27 26  2  0  0  0  0
 27 28  1  0  0  0  0
 28 29  2  0  0  0  0
 29 30  1  0  0  0  0
 31 30  2  0  0  0  0
M  END
>  <minimizedAffinity>
-7.49636936

$$$$
