REMARK  Name = 
REMARK  4 active torsions:
REMARK  status: ('A' for Active; 'I' for Inactive)
REMARK    1  A    between atoms: C_2  and  C_4
REMARK    2  A    between atoms: N_10  and  C_11
REMARK    3  A    between atoms: C_11  and  C_12
REMARK    4  A    between atoms: C_16  and  N_17
REMARK                            x       y       z     vdW  Elec       q    Type
REMARK                         _______ _______ _______ _____ _____    ______ ____
ROOT
ATOM      1  C   UNL     1       0.965  -2.488  -1.035  0.00  0.00    +0.063 A 
ATOM      2  C   UNL     1       2.011  -3.044  -0.283  0.00  0.00    +0.015 A 
ATOM      3  C   UNL     1       2.671  -4.164  -0.759  0.00  0.00    +0.002 A 
ATOM      4  C   UNL     1       2.285  -4.708  -1.981  0.00  0.00    +0.013 A 
ATOM      5  C   UNL     1       1.236  -4.136  -2.754  0.00  0.00    +0.041 A 
ATOM      6  C   UNL     1       0.822  -4.619  -4.014  0.00  0.00    +0.130 A 
ATOM      7  N   UNL     1       1.461  -5.708  -4.595  0.00  0.00    -0.324 N 
ATOM      8  N   UNL     1      -0.207  -4.071  -4.679  0.00  0.00    -0.220 NA
ATOM      9  C   UNL     1      -0.789  -3.007  -4.124  0.00  0.00    +0.223 A 
ATOM     10  N   UNL     1      -0.443  -2.438  -2.969  0.00  0.00    -0.235 NA
ATOM     11  C   UNL     1       0.551  -3.009  -2.268  0.00  0.00    +0.088 A 
ATOM     12  H   UNL     1       2.450  -5.804  -4.411  0.00  0.00    +0.148 HD
ENDROOT
BRANCH   1  14
ATOM     13  N   UNL     1       1.040  -0.185  -0.347  0.00  0.00    -0.325 N 
ATOM     14  C   UNL     1       0.278  -1.314  -0.464  0.00  0.00    +0.244 C 
ATOM     15  O   UNL     1      -0.877  -1.363  -0.063  0.00  0.00    -0.270 OA
ATOM     16  H   UNL     1       0.598   0.637   0.043  0.00  0.00    +0.145 HD
ATOM     17  H   UNL     1       1.987  -0.116  -0.691  0.00  0.00    +0.145 HD
ENDBRANCH   1  14
BRANCH   7  18
ATOM     18  C   UNL     1       1.012  -6.239  -5.871  0.00  0.00    +0.138 C 
BRANCH  18  19
ATOM     19  C   UNL     1       2.223  -6.542  -6.726  0.00  0.00    -0.029 A 
ATOM     20  C   UNL     1       2.542  -7.849  -7.101  0.00  0.00    +0.005 A 
ATOM     21  C   UNL     1       3.674  -8.093  -7.877  0.00  0.00    +0.002 A 
ATOM     22  C   UNL     1       4.500  -7.036  -8.275  0.00  0.00    +0.023 A 
ATOM     23  C   UNL     1       4.214  -5.719  -7.906  0.00  0.00    +0.033 A 
ATOM     24  C   UNL     1       3.058  -5.490  -7.147  0.00  0.00    +0.028 A 
BRANCH  23  25
ATOM     25  N   UNL     1       4.996  -4.617  -8.272  0.00  0.00    -0.299 N 
ATOM     26  C   UNL     1       5.972  -4.388  -9.236  0.00  0.00    +0.123 A 
ATOM     27  C   UNL     1       6.061  -5.104 -10.424  0.00  0.00    +0.044 A 
ATOM     28  C   UNL     1       7.076  -4.804 -11.333  0.00  0.00    +0.005 A 
ATOM     29  C   UNL     1       7.976  -3.792 -11.035  0.00  0.00    +0.020 A 
ATOM     30  C   UNL     1       7.809  -3.111  -9.844  0.00  0.00    +0.113 A 
ATOM     31  N   UNL     1       6.828  -3.380  -8.954  0.00  0.00    -0.240 NA
ATOM     32  H   UNL     1       5.036  -3.874  -7.583  0.00  0.00    +0.154 HD
ENDBRANCH  23  25
ENDBRANCH  18  19
ENDBRANCH   7  18
TORSDOF 4
