REMARK  Name = 
REMARK  6 active torsions:
REMARK  status: ('A' for Active; 'I' for Inactive)
REMARK    1  A    between atoms: C_3  and  C_5
REMARK    2  A    between atoms: C_5  and  C_6
REMARK    3  A    between atoms: C_6  and  C_7
REMARK    4  A    between atoms: C_11  and  N_12
REMARK    5  A    between atoms: C_21  and  O_22
REMARK    6  A    between atoms: O_22  and  C_23
REMARK                            x       y       z     vdW  Elec       q    Type
REMARK                         _______ _______ _______ _____ _____    ______ ____
ROOT
ATOM      1 CL   UNL     1       1.019  -0.098  -0.002  0.00  0.00    -0.145 Cl
ATOM      2  H   UNL     1       2.349  -0.098  -0.002  0.00  0.00    +0.145 HD
ENDROOT
TORSDOF 0
REMARK  Name = 
REMARK  6 active torsions:
REMARK  status: ('A' for Active; 'I' for Inactive)
REMARK    1  A    between atoms: C_3  and  C_5
REMARK    2  A    between atoms: C_5  and  C_6
REMARK    3  A    between atoms: C_6  and  C_7
REMARK    4  A    between atoms: C_11  and  N_12
REMARK    5  A    between atoms: C_21  and  O_22
REMARK    6  A    between atoms: O_22  and  C_23
REMARK                            x       y       z     vdW  Elec       q    Type
REMARK                         _______ _______ _______ _____ _____    ______ ____
ROOT
ATOM      1  C   UNL     1       2.945  -0.832  -0.954  0.00  0.00    +0.016 C 
ATOM      2  C   UNL     1       4.455  -0.563  -0.964  0.00  0.00    +0.017 C 
ATOM      3  C   UNL     1       5.194  -1.523  -1.889  0.00  0.00    +0.045 C 
ATOM      4  C   UNL     1       4.918  -2.971  -1.516  0.00  0.00    +0.174 C 
ATOM      5  C   UNL     1       3.418  -3.235  -1.524  0.00  0.00    +0.045 C 
ATOM      6  C   UNL     1       2.679  -2.290  -0.588  0.00  0.00    +0.017 C 
ENDROOT
BRANCH   1   8
ATOM      7  O   UNL     1       2.993  -1.087  -3.349  0.00  0.00    -0.549 OA
ATOM      8  C   UNL     1       2.453  -0.507  -2.355  0.00  0.00    +0.048 C 
ATOM      9  O   UNL     1       1.422   0.447  -2.564  0.00  0.00    -0.549 OA
ENDBRANCH   1   8
BRANCH   1  10
ATOM     10  C   UNL     1       2.185   0.042   0.030  0.00  0.00    +0.068 C 
BRANCH  10  11
ATOM     11  C   UNL     1       2.301   1.537  -0.214  0.00  0.00    +0.044 A 
ATOM     12  C   UNL     1       1.833   2.053  -1.407  0.00  0.00    +0.023 A 
ATOM     13  C   UNL     1       1.952   3.422  -1.657  0.00  0.00    +0.005 A 
ATOM     14  C   UNL     1       2.528   4.210  -0.669  0.00  0.00    +0.044 A 
ATOM     15  C   UNL     1       2.945   3.618   0.501  0.00  0.00    +0.125 A 
ATOM     16  N   UNL     1       2.853   2.306   0.738  0.00  0.00    -0.237 NA
BRANCH  15  17
ATOM     17  N   UNL     1       3.523   4.475   1.547  0.00  0.00    -0.279 N 
ATOM     18  C   UNL     1       3.981   3.883   2.812  0.00  0.00    +0.163 A 
ATOM     19  N   UNL     1       4.917   2.978   2.820  0.00  0.00    -0.233 NA
ATOM     20  C   UNL     1       5.293   2.618   4.103  0.00  0.00    +0.120 A 
ATOM     21  C   UNL     1       4.588   3.265   5.084  0.00  0.00    +0.068 A 
ATOM     22  S   UNL     1       3.437   4.370   4.381  0.00  0.00    -0.061 S 
ATOM     23  H   UNL     1       3.605   5.480   1.395  0.00  0.00    +0.155 HD
ENDBRANCH  15  17
ENDBRANCH  10  11
ENDBRANCH   1  10
BRANCH   4  24
ATOM     24  O   UNL     1       5.428  -3.222  -0.215  0.00  0.00    -0.486 OA
BRANCH  24  25
ATOM     25  C   UNL     1       4.940  -2.481   0.894  0.00  0.00    +0.157 A 
ATOM     26  C   UNL     1       5.717  -1.570   1.581  0.00  0.00    +0.049 A 
ATOM     27  C   UNL     1       5.164  -0.739   2.547  0.00  0.00    +0.005 A 
ATOM     28  C   UNL     1       3.801  -0.834   2.821  0.00  0.00    +0.023 A 
ATOM     29  C   UNL     1       3.024  -1.746   2.131  0.00  0.00    +0.080 A 
ATOM     30 CL   UNL     1       1.323  -1.844   2.433  0.00  0.00    -0.080 Cl
ATOM     31  C   UNL     1       3.602  -2.559   1.182  0.00  0.00    +0.183 A 
ATOM     32  F   UNL     1       2.831  -3.430   0.500  0.00  0.00    -0.200 F 
ENDBRANCH  24  25
ENDBRANCH   4  24
TORSDOF 6
