
 OpenBabel10152419533D

 39 42  0  0  0  0  0  0  0  0999 V2000
    1.2720  -12.1900  -25.8860 C   0  0  0  0  0  0  0  0  0  0  0  0
    1.3080  -12.9550  -27.0560 C   0  0  0  0  0  3  0  0  0  0  0  0
    2.2140  -12.6480  -28.0680 C   0  0  0  0  0  3  0  0  0  0  0  0
    3.0900  -11.5660  -27.9280 C   0  0  0  0  0  3  0  0  0  0  0  0
    3.0490  -10.7650  -26.7870 C   0  0  0  0  0  0  0  0  0  0  0  0
    2.1440  -11.0940  -25.7660 C   0  0  0  0  0  3  0  0  0  0  0  0
    3.9040   -9.6740  -26.5390 N   0  0  0  0  0  0  0  0  0  0  0  0
    3.7290   -8.3140  -26.6040 C   0  0  0  0  0  0  0  0  0  0  0  0
    4.7090   -7.5690  -26.5940 O   0  0  0  0  0  0  0  0  0  0  0  0
    4.8600   -9.9020  -26.2940 H   0  0  0  0  0  0  0  0  0  0  0  0
    2.4030   -7.6900  -26.6400 C   0  0  0  0  0  0  0  0  0  0  0  0
    1.9810   -7.0610  -27.8160 C   0  0  0  0  0  3  0  0  0  0  0  0
    0.7360   -6.4260  -27.8540 C   0  0  0  0  0  3  0  0  0  0  0  0
   -0.0890   -6.4000  -26.7150 C   0  0  0  0  0  0  0  0  0  0  0  0
    0.3680   -7.0030  -25.5310 C   0  0  0  0  0  3  0  0  0  0  0  0
    1.6090   -7.6360  -25.4980 C   0  0  0  0  0  0  0  0  0  0  0  0
    2.0210   -8.1800  -24.3440 F   0  0  0  0  0  0  0  0  0  0  0  0
   -1.4220   -5.6920  -26.7560 C   0  0  0  0  0  0  0  0  0  0  0  0
   -1.3930   -4.4980  -26.1040 F   0  0  0  0  0  0  0  0  0  0  0  0
   -1.8320   -5.4180  -28.0250 F   0  0  0  0  0  0  0  0  0  0  0  0
   -2.4280   -6.4090  -26.1850 F   0  0  0  0  0  0  0  0  0  0  0  0
    0.3130  -12.5390  -24.7730 C   0  0  0  0  0  2  0  0  0  0  0  0
   -2.6350   -8.4110  -21.3750 C   0  0  0  0  0  0  0  0  0  0  0  0
   -2.9890   -7.4920  -22.3750 C   0  0  0  0  0  3  0  0  0  0  0  0
   -2.6660   -7.7630  -23.6940 C   0  0  0  0  0  3  0  0  0  0  0  0
   -1.9980   -8.9470  -23.9980 C   0  0  0  0  0  3  0  0  0  0  0  0
   -1.6490   -9.8840  -22.9870 C   0  0  0  0  0  0  0  0  0  0  0  0
   -0.9730  -11.0970  -23.2320 C   0  0  0  0  0  0  0  0  0  0  0  0
   -0.5990  -11.4380  -24.5290 N   0  0  0  0  0  0  0  0  0  0  0  0
   -0.6310  -11.9320  -22.2370 N   0  0  0  0  0  0  0  0  0  0  0  0
   -0.9950  -11.5820  -21.0030 C   0  0  0  0  0  3  0  0  0  0  0  0
   -1.6630  -10.4790  -20.6650 N   0  0  0  0  0  0  0  0  0  0  0  0
   -1.9700   -9.6130  -21.6450 C   0  0  0  0  0  0  0  0  0  0  0  0
   -1.3000  -11.2880  -25.2400 H   0  0  0  0  0  0  0  0  0  0  0  0
   -4.1250   -7.3480  -19.8140 N   0  0  0  0  0  0  0  0  0  0  0  0
   -2.9610   -8.0460  -19.9840 C   0  0  0  0  0  0  0  0  0  0  0  0
   -2.2080   -8.2930  -19.0530 O   0  0  0  0  0  0  0  0  0  0  0  0
   -4.3730   -7.0810  -18.8710 H   0  0  0  0  0  0  0  0  0  0  0  0
   -4.7690   -7.1510  -20.5660 H   0  0  0  0  0  0  0  0  0  0  0  0
  1  6  1  0  0  0  0
  1 22  1  0  0  0  0
  2  1  2  0  0  0  0
  3  4  2  0  0  0  0
  3  2  1  0  0  0  0
  4  5  1  0  0  0  0
  5  7  1  0  0  0  0
  5  6  2  0  0  0  0
  7 10  1  0  0  0  0
  8  9  2  0  0  0  0
  8  7  1  0  0  0  0
 11  8  1  0  0  0  0
 11 16  1  0  0  0  0
 12 11  2  0  0  0  0
 13 12  1  0  0  0  0
 13 14  2  0  0  0  0
 14 15  1  0  0  0  0
 15 16  2  0  0  0  0
 16 17  1  0  0  0  0
 18 14  1  0  0  0  0
 18 21  1  0  0  0  0
 18 19  1  0  0  0  0
 20 18  1  0  0  0  0
 22 29  1  0  0  0  0
 23 36  1  0  0  0  0
 24 23  2  0  0  0  0
 25 24  1  0  0  0  0
 26 25  2  0  0  0  0
 26 27  1  0  0  0  0
 27 33  1  0  0  0  0
 28 27  2  0  0  0  0
 28 30  1  0  0  0  0
 29 28  1  0  0  0  0
 30 31  2  0  0  0  0
 31 32  1  0  0  0  0
 33 23  1  0  0  0  0
 33 32  2  0  0  0  0
 34 29  1  0  0  0  0
 35 38  1  0  0  0  0
 36 35  1  0  0  0  0
 36 37  2  0  0  0  0
 39 35  1  0  0  0  0
M  END
>  <minimizedAffinity>
-7.37154579

$$$$
