REMARK  Name = 
REMARK  6 active torsions:
REMARK  status: ('A' for Active; 'I' for Inactive)
REMARK    1  A    between atoms: C_2  and  C_4
REMARK    2  A    between atoms: N_10  and  C_11
REMARK    3  A    between atoms: C_11  and  C_12
REMARK    4  A    between atoms: C_16  and  N_17
REMARK    5  A    between atoms: C_18  and  C_20
REMARK    6  A    between atoms: C_23  and  C_24
REMARK                            x       y       z     vdW  Elec       q    Type
REMARK                         _______ _______ _______ _____ _____    ______ ____
ROOT
ATOM      1  C   UNL     1       1.790   5.528   7.395  0.00  0.00    -0.029 A 
ATOM      2  C   UNL     1       1.704   4.263   7.985  0.00  0.00    +0.005 A 
ATOM      3  C   UNL     1       2.434   3.974   9.135  0.00  0.00    +0.002 A 
ATOM      4  C   UNL     1       3.267   4.942   9.706  0.00  0.00    +0.023 A 
ATOM      5  C   UNL     1       3.399   6.199   9.116  0.00  0.00    +0.034 A 
ATOM      6  C   UNL     1       2.645   6.485   7.967  0.00  0.00    +0.028 A 
ENDROOT
BRANCH   5   7
ATOM      7  N   UNL     1       4.187   7.248   9.626  0.00  0.00    -0.281 N 
ATOM      8  C   UNL     1       5.152   7.306  10.601  0.00  0.00    +0.251 C 
ATOM      9  O   UNL     1       5.509   8.397  11.046  0.00  0.00    -0.270 OA
ATOM     10  H   UNL     1       4.008   8.169   9.242  0.00  0.00    +0.155 HD
BRANCH   8  11
ATOM     11  C   UNL     1       5.824   6.110  11.117  0.00  0.00    +0.072 A 
ATOM     12  C   UNL     1       5.814   5.867  12.495  0.00  0.00    +0.016 A 
ATOM     13  C   UNL     1       6.485   4.753  13.007  0.00  0.00    +0.013 A 
ATOM     14  C   UNL     1       7.184   3.883  12.151  0.00  0.00    +0.058 A 
ATOM     15  C   UNL     1       7.217   4.164  10.775  0.00  0.00    +0.051 A 
ATOM     16  C   UNL     1       6.545   5.275  10.268  0.00  0.00    +0.136 A 
ATOM     17  F   UNL     1       6.618   5.524   8.953  0.00  0.00    -0.205 F 
BRANCH  14  18
ATOM     18  C   UNL     1       7.927   2.695  12.714  0.00  0.00    +0.418 C 
ATOM     19  F   UNL     1       9.137   3.040  13.231  0.00  0.00    -0.166 F 
ATOM     20  F   UNL     1       7.248   2.080  13.721  0.00  0.00    -0.166 F 
ATOM     21  F   UNL     1       8.174   1.729  11.787  0.00  0.00    -0.166 F 
ENDBRANCH  14  18
ENDBRANCH   8  11
ENDBRANCH   5   7
BRANCH   1  22
ATOM     22  C   UNL     1       0.976   5.855   6.166  0.00  0.00    +0.138 C 
BRANCH  22  29
ATOM     23  C   UNL     1       1.169   2.309   1.199  0.00  0.00    +0.063 A 
ATOM     24  C   UNL     1       2.237   2.914   0.519  0.00  0.00    +0.015 A 
ATOM     25  C   UNL     1       2.905   3.975   1.107  0.00  0.00    +0.002 A 
ATOM     26  C   UNL     1       2.501   4.415   2.365  0.00  0.00    +0.013 A 
ATOM     27  C   UNL     1       1.427   3.795   3.060  0.00  0.00    +0.041 A 
ATOM     28  C   UNL     1       0.973   4.196   4.334  0.00  0.00    +0.130 A 
ATOM     29  N   UNL     1       1.581   5.264   4.988  0.00  0.00    -0.324 N 
ATOM     30  N   UNL     1      -0.073   3.603   4.933  0.00  0.00    -0.220 NA
ATOM     31  C   UNL     1      -0.643   2.586   4.286  0.00  0.00    +0.223 A 
ATOM     32  N   UNL     1      -0.274   2.106   3.098  0.00  0.00    -0.235 NA
ATOM     33  C   UNL     1       0.741   2.721   2.467  0.00  0.00    +0.088 A 
ATOM     34  H   UNL     1       2.591   5.272   4.967  0.00  0.00    +0.148 HD
BRANCH  23  36
ATOM     35  N   UNL     1       1.189   0.074   0.311  0.00  0.00    -0.325 N 
ATOM     36  C   UNL     1       0.463   1.217   0.503  0.00  0.00    +0.244 C 
ATOM     37  O   UNL     1      -0.672   1.348   0.069  0.00  0.00    -0.270 OA
ATOM     38  H   UNL     1       0.733  -0.692  -0.167  0.00  0.00    +0.145 HD
ATOM     39  H   UNL     1       2.120  -0.061   0.678  0.00  0.00    +0.145 HD
ENDBRANCH  23  36
ENDBRANCH  22  29
ENDBRANCH   1  22
TORSDOF 6
