
 OpenBabel10152418333D

 39 42  0  0  0  0  0  0  0  0999 V2000
    0.4890   -5.3540  -27.1140 C   0  0  0  0  0  0  0  0  0  0  0  0
   -0.1080   -4.7510  -26.0020 C   0  0  0  0  0  3  0  0  0  0  0  0
   -0.9810   -5.4790  -25.1980 C   0  0  0  0  0  3  0  0  0  0  0  0
   -1.2840   -6.8100  -25.5030 C   0  0  0  0  0  3  0  0  0  0  0  0
   -0.7410   -7.4190  -26.6350 C   0  0  0  0  0  0  0  0  0  0  0  0
    0.1550   -6.6820  -27.4260 C   0  0  0  0  0  3  0  0  0  0  0  0
   -0.9710   -8.7500  -27.0290 N   0  0  0  0  0  0  0  0  0  0  0  0
   -1.0380   -9.9400  -26.3480 C   0  0  0  0  0  0  0  0  0  0  0  0
   -1.0210  -11.0020  -26.9700 O   0  0  0  0  0  0  0  0  0  0  0  0
   -1.0830   -8.9050  -28.0240 H   0  0  0  0  0  0  0  0  0  0  0  0
   -1.1650  -10.0140  -24.8890 C   0  0  0  0  0  0  0  0  0  0  0  0
   -2.1980   -9.3050  -24.2650 C   0  0  0  0  0  3  0  0  0  0  0  0
   -2.3080   -9.3250  -22.8720 C   0  0  0  0  0  3  0  0  0  0  0  0
   -1.3820  -10.0400  -22.0910 C   0  0  0  0  0  0  0  0  0  0  0  0
   -0.3280  -10.7140  -22.7320 C   0  0  0  0  0  3  0  0  0  0  0  0
   -0.2220  -10.6920  -24.1220 C   0  0  0  0  0  0  0  0  0  0  0  0
    0.8060  -11.3290  -24.6990 F   0  0  0  0  0  0  0  0  0  0  0  0
   -1.4910  -10.0370  -20.5830 C   0  0  0  0  0  0  0  0  0  0  0  0
   -2.7790  -10.1380  -20.1580 F   0  0  0  0  0  0  0  0  0  0  0  0
   -0.8200  -11.0710  -20.0030 F   0  0  0  0  0  0  0  0  0  0  0  0
   -0.9930   -8.9050  -20.0140 F   0  0  0  0  0  0  0  0  0  0  0  0
    1.4610   -4.5820  -27.9720 C   0  0  0  0  0  2  0  0  0  0  0  0
    4.2210   -9.7870  -29.5610 C   0  0  0  0  0  0  0  0  0  0  0  0
    4.1480   -9.6750  -30.9580 C   0  0  0  0  0  3  0  0  0  0  0  0
    3.5980   -8.5350  -31.5200 C   0  0  0  0  0  3  0  0  0  0  0  0
    3.1310   -7.5270  -30.6830 C   0  0  0  0  0  3  0  0  0  0  0  0
    3.2150   -7.6340  -29.2660 C   0  0  0  0  0  0  0  0  0  0  0  0
    2.7580   -6.6460  -28.3680 C   0  0  0  0  0  0  0  0  0  0  0  0
    2.1770   -5.4790  -28.8550 N   0  0  0  0  0  0  0  0  0  0  0  0
    2.8250   -6.8120  -27.0370 N   0  0  0  0  0  0  0  0  0  0  0  0
    3.3790   -7.9420  -26.5960 C   0  0  0  0  0  3  0  0  0  0  0  0
    3.8700   -8.9240  -27.3540 N   0  0  0  0  0  0  0  0  0  0  0  0
    3.7680   -8.7900  -28.6880 C   0  0  0  0  0  0  0  0  0  0  0  0
    2.6680   -5.0390  -29.6210 H   0  0  0  0  0  0  0  0  0  0  0  0
    4.9740  -12.0380  -29.9330 N   0  0  0  0  0  0  0  0  0  0  0  0
    4.7710  -11.0420  -29.0190 C   0  0  0  0  0  0  0  0  0  0  0  0
    4.9660  -11.2020  -27.8240 O   0  0  0  0  0  0  0  0  0  0  0  0
    5.3450  -12.9150  -29.5910 H   0  0  0  0  0  0  0  0  0  0  0  0
    4.8350  -11.9180  -30.9260 H   0  0  0  0  0  0  0  0  0  0  0  0
  1  2  1  0  0  0  0
  2  3  2  0  0  0  0
  4  3  1  0  0  0  0
  5  4  2  0  0  0  0
  6  1  2  0  0  0  0
  6  5  1  0  0  0  0
  7  5  1  0  0  0  0
  7  8  1  0  0  0  0
  8 11  1  0  0  0  0
  9  8  2  0  0  0  0
 10  7  1  0  0  0  0
 11 12  2  0  0  0  0
 11 16  1  0  0  0  0
 12 13  1  0  0  0  0
 13 14  2  0  0  0  0
 14 18  1  0  0  0  0
 15 14  1  0  0  0  0
 16 15  2  0  0  0  0
 17 16  1  0  0  0  0
 18 19  1  0  0  0  0
 18 21  1  0  0  0  0
 18 20  1  0  0  0  0
 22  1  1  0  0  0  0
 23 36  1  0  0  0  0
 23 33  1  0  0  0  0
 24 23  2  0  0  0  0
 25 24  1  0  0  0  0
 25 26  2  0  0  0  0
 26 27  1  0  0  0  0
 27 33  2  0  0  0  0
 27 28  1  0  0  0  0
 28 30  2  0  0  0  0
 29 28  1  0  0  0  0
 29 22  1  0  0  0  0
 30 31  1  0  0  0  0
 32 31  2  0  0  0  0
 33 32  1  0  0  0  0
 34 29  1  0  0  0  0
 35 38  1  0  0  0  0
 35 36  1  0  0  0  0
 36 37  2  0  0  0  0
 39 35  1  0  0  0  0
M  END
>  <minimizedAffinity>
-5.05742216

$$$$
