
 OpenBabel10152418333D

 39 42  0  0  0  0  0  0  0  0999 V2000
    3.6280  -10.8470  -29.3570 C   0  0  0  0  0  0  0  0  0  0  0  0
    3.3910  -10.9140  -30.7330 C   0  0  0  0  0  3  0  0  0  0  0  0
    3.6790   -9.8210  -31.5460 C   0  0  0  0  0  3  0  0  0  0  0  0
    4.1890   -8.6410  -30.9930 C   0  0  0  0  0  3  0  0  0  0  0  0
    4.3860   -8.5310  -29.6160 C   0  0  0  0  0  0  0  0  0  0  0  0
    4.1130   -9.6480  -28.8100 C   0  0  0  0  0  3  0  0  0  0  0  0
    4.9000   -7.3980  -28.9590 N   0  0  0  0  0  0  0  0  0  0  0  0
    4.3590   -6.4760  -28.0980 C   0  0  0  0  0  0  0  0  0  0  0  0
    4.9730   -5.4390  -27.8500 O   0  0  0  0  0  0  0  0  0  0  0  0
    5.8650   -7.1650  -29.1670 H   0  0  0  0  0  0  0  0  0  0  0  0
    3.0760   -6.6820  -27.4190 C   0  0  0  0  0  0  0  0  0  0  0  0
    1.9900   -5.8700  -27.7660 C   0  0  0  0  0  3  0  0  0  0  0  0
    0.7730   -6.0190  -27.0980 C   0  0  0  0  0  3  0  0  0  0  0  0
    0.6330   -6.9680  -26.0680 C   0  0  0  0  0  0  0  0  0  0  0  0
    1.7450   -7.7470  -25.7060 C   0  0  0  0  0  3  0  0  0  0  0  0
    2.9580   -7.5960  -26.3760 C   0  0  0  0  0  0  0  0  0  0  0  0
    4.0020   -8.3410  -25.9900 F   0  0  0  0  0  0  0  0  0  0  0  0
   -0.6800   -7.1060  -25.3300 C   0  0  0  0  0  0  0  0  0  0  0  0
   -1.5780   -7.8680  -26.0120 F   0  0  0  0  0  0  0  0  0  0  0  0
   -0.5390   -7.6920  -24.1080 F   0  0  0  0  0  0  0  0  0  0  0  0
   -1.2920   -5.9130  -25.1010 F   0  0  0  0  0  0  0  0  0  0  0  0
    3.3490  -12.0390  -28.4740 C   0  0  0  0  0  2  0  0  0  0  0  0
   -0.6660  -10.9720  -24.0040 C   0  0  0  0  0  0  0  0  0  0  0  0
   -1.8110  -10.7130  -24.7740 C   0  0  0  0  0  3  0  0  0  0  0  0
   -1.7410  -10.8180  -26.1530 C   0  0  0  0  0  3  0  0  0  0  0  0
   -0.5330  -11.1790  -26.7420 C   0  0  0  0  0  3  0  0  0  0  0  0
    0.6260  -11.4520  -25.9630 C   0  0  0  0  0  0  0  0  0  0  0  0
    1.8760  -11.8210  -26.5040 C   0  0  0  0  0  0  0  0  0  0  0  0
    2.0310  -11.9310  -27.8820 N   0  0  0  0  0  0  0  0  0  0  0  0
    2.9510  -12.0320  -25.7270 N   0  0  0  0  0  0  0  0  0  0  0  0
    2.7770  -11.9130  -24.4100 C   0  0  0  0  0  3  0  0  0  0  0  0
    1.6360  -11.6010  -23.7930 N   0  0  0  0  0  0  0  0  0  0  0  0
    0.5630  -11.3440  -24.5620 C   0  0  0  0  0  0  0  0  0  0  0  0
    1.2940  -12.4290  -28.3620 H   0  0  0  0  0  0  0  0  0  0  0  0
   -0.9990  -11.9420  -21.8320 N   0  0  0  0  0  0  0  0  0  0  0  0
   -0.7870  -10.7970  -22.5460 C   0  0  0  0  0  0  0  0  0  0  0  0
   -0.7670   -9.6930  -22.0210 O   0  0  0  0  0  0  0  0  0  0  0  0
   -1.0930  -11.8550  -20.8280 H   0  0  0  0  0  0  0  0  0  0  0  0
   -1.0010  -12.8630  -22.2460 H   0  0  0  0  0  0  0  0  0  0  0  0
  1  6  1  0  0  0  0
  1 22  1  0  0  0  0
  2  1  2  0  0  0  0
  3  4  2  0  0  0  0
  3  2  1  0  0  0  0
  4  5  1  0  0  0  0
  5  7  1  0  0  0  0
  5  6  2  0  0  0  0
  7  8  1  0  0  0  0
  8  9  2  0  0  0  0
  8 11  1  0  0  0  0
 10  7  1  0  0  0  0
 11 16  1  0  0  0  0
 12 11  2  0  0  0  0
 12 13  1  0  0  0  0
 13 14  2  0  0  0  0
 14 15  1  0  0  0  0
 14 18  1  0  0  0  0
 16 17  1  0  0  0  0
 16 15  2  0  0  0  0
 18 21  1  0  0  0  0
 18 20  1  0  0  0  0
 19 18  1  0  0  0  0
 22 29  1  0  0  0  0
 23 36  1  0  0  0  0
 24 23  2  0  0  0  0
 25 24  1  0  0  0  0
 26 25  2  0  0  0  0
 26 27  1  0  0  0  0
 27 33  1  0  0  0  0
 28 27  2  0  0  0  0
 28 30  1  0  0  0  0
 29 28  1  0  0  0  0
 30 31  2  0  0  0  0
 31 32  1  0  0  0  0
 33 23  1  0  0  0  0
 33 32  2  0  0  0  0
 34 29  1  0  0  0  0
 35 38  1  0  0  0  0
 36 37  2  0  0  0  0
 36 35  1  0  0  0  0
 39 35  1  0  0  0  0
M  END
>  <minimizedAffinity>
-6.33131409

$$$$
