REMARK  Name = 
REMARK  6 active torsions:
REMARK  status: ('A' for Active; 'I' for Inactive)
REMARK    1  A    between atoms: C_2  and  C_4
REMARK    2  A    between atoms: N_10  and  C_11
REMARK    3  A    between atoms: C_11  and  C_12
REMARK    4  A    between atoms: C_16  and  N_17
REMARK    5  A    between atoms: C_18  and  C_20
REMARK    6  A    between atoms: C_23  and  C_24
REMARK                            x       y       z     vdW  Elec       q    Type
REMARK                         _______ _______ _______ _____ _____    ______ ____
ROOT
ATOM      1  C   UNL     1       2.037   1.061   9.241  0.00  0.00    -0.029 A 
ATOM      2  C   UNL     1       1.685  -0.287   9.353  0.00  0.00    +0.005 A 
ATOM      3  C   UNL     1       2.392  -1.125  10.212  0.00  0.00    +0.002 A 
ATOM      4  C   UNL     1       3.470  -0.632  10.955  0.00  0.00    +0.023 A 
ATOM      5  C   UNL     1       3.873   0.697  10.823  0.00  0.00    +0.034 A 
ATOM      6  C   UNL     1       3.139   1.537   9.971  0.00  0.00    +0.028 A 
ENDROOT
BRANCH   5   7
ATOM      7  N   UNL     1       4.934   1.296  11.527  0.00  0.00    -0.281 N 
ATOM      8  C   UNL     1       5.936   0.805  12.326  0.00  0.00    +0.251 C 
ATOM      9  O   UNL     1       6.603   1.578  13.014  0.00  0.00    -0.270 OA
ATOM     10  H   UNL     1       4.980   2.308  11.483  0.00  0.00    +0.155 HD
BRANCH   8  11
ATOM     11  C   UNL     1       6.284  -0.618  12.379  0.00  0.00    +0.072 A 
ATOM     12  C   UNL     1       6.258  -1.274  13.615  0.00  0.00    +0.016 A 
ATOM     13  C   UNL     1       6.631  -2.618  13.694  0.00  0.00    +0.013 A 
ATOM     14  C   UNL     1       7.047  -3.314  12.544  0.00  0.00    +0.058 A 
ATOM     15  C   UNL     1       7.105  -2.629  11.318  0.00  0.00    +0.051 A 
ATOM     16  C   UNL     1       6.731  -1.288  11.244  0.00  0.00    +0.136 A 
ATOM     17  F   UNL     1       6.818  -0.661  10.063  0.00  0.00    -0.205 F 
BRANCH  14  18
ATOM     18  C   UNL     1       7.475  -4.761  12.640  0.00  0.00    +0.418 C 
ATOM     19  F   UNL     1       8.774  -4.891  13.022  0.00  0.00    -0.166 F 
ATOM     20  F   UNL     1       6.743  -5.469  13.545  0.00  0.00    -0.166 F 
ATOM     21  F   UNL     1       7.358  -5.432  11.462  0.00  0.00    -0.166 F 
ENDBRANCH  14  18
ENDBRANCH   8  11
ENDBRANCH   5   7
BRANCH   1  22
ATOM     22  C   UNL     1       1.256   1.983   8.337  0.00  0.00    +0.138 C 
BRANCH  22  29
ATOM     23  C   UNL     1       1.254   1.197   2.286  0.00  0.00    +0.063 A 
ATOM     24  C   UNL     1       2.338   2.019   1.942  0.00  0.00    +0.015 A 
ATOM     25  C   UNL     1       3.056   2.651   2.943  0.00  0.00    +0.002 A 
ATOM     26  C   UNL     1       2.683   2.454   4.269  0.00  0.00    +0.013 A 
ATOM     27  C   UNL     1       1.591   1.612   4.620  0.00  0.00    +0.041 A 
ATOM     28  C   UNL     1       1.167   1.375   5.945  0.00  0.00    +0.130 A 
ATOM     29  N   UNL     1       1.827   1.988   7.006  0.00  0.00    -0.324 N 
ATOM     30  N   UNL     1       0.105   0.601   6.223  0.00  0.00    -0.220 NA
ATOM     31  C   UNL     1      -0.514   0.031   5.188  0.00  0.00    +0.223 A 
ATOM     32  N   UNL     1      -0.179   0.162   3.903  0.00  0.00    -0.235 NA
ATOM     33  C   UNL     1       0.855   0.970   3.609  0.00  0.00    +0.088 A 
ATOM     34  H   UNL     1       2.836   1.957   6.963  0.00  0.00    +0.148 HD
BRANCH  23  36
ATOM     35  N   UNL     1       1.154  -0.386   0.481  0.00  0.00    -0.325 N 
ATOM     36  C   UNL     1       0.497   0.590   1.177  0.00  0.00    +0.244 C 
ATOM     37  O   UNL     1      -0.616   0.982   0.860  0.00  0.00    -0.270 OA
ATOM     38  H   UNL     1       0.663  -0.818  -0.291  0.00  0.00    +0.145 HD
ATOM     39  H   UNL     1       2.066  -0.734   0.739  0.00  0.00    +0.145 HD
ENDBRANCH  23  36
ENDBRANCH  22  29
ENDBRANCH   1  22
TORSDOF 6
