
 OpenBabel10152419463D

 35 38  0  0  0  0  0  0  0  0999 V2000
   -1.3260   -7.1490  -26.1220 C   0  0  0  0  0  2  0  0  0  0  0  0
    1.6340   -5.7800  -28.0730 C   0  0  0  0  0  0  0  0  0  0  0  0
    1.3880   -4.4090  -28.0640 C   0  0  0  0  0  3  0  0  0  0  0  0
    0.2130   -3.9230  -27.4830 C   0  0  0  0  0  3  0  0  0  0  0  0
   -0.6850   -4.8000  -26.8650 C   0  0  0  0  0  3  0  0  0  0  0  0
   -0.4370   -6.1760  -26.8640 C   0  0  0  0  0  0  0  0  0  0  0  0
    0.6890   -6.6620  -27.5410 C   0  0  0  0  0  3  0  0  0  0  0  0
    3.5740   -7.3950  -28.0530 C   0  0  0  0  0  0  0  0  0  0  0  0
    4.6900   -7.5690  -28.5520 O   0  0  0  0  0  0  0  0  0  0  0  0
    2.8190   -6.3540  -28.5340 N   0  0  0  0  0  0  0  0  0  0  0  0
    3.1660   -6.0330  -29.4300 H   0  0  0  0  0  0  0  0  0  0  0  0
    3.7730  -10.5600  -28.2690 C   0  0  0  0  0  1  0  0  0  0  0  0
    3.1840   -9.7900  -27.1210 C   0  0  0  0  0  0  0  0  0  0  0  0
    2.7280  -10.5660  -26.0340 C   0  0  0  0  0  3  0  0  0  0  0  0
    2.3030   -9.9740  -24.8470 C   0  0  0  0  0  3  0  0  0  0  0  0
    2.3030   -8.5930  -24.7300 C   0  0  0  0  0  3  0  0  0  0  0  0
    2.6830   -7.8070  -25.8170 C   0  0  0  0  0  3  0  0  0  0  0  0
    3.0970   -8.3840  -27.0350 C   0  0  0  0  0  0  0  0  0  0  0  0
   -0.9620   -8.4950  -26.5100 N   0  0  0  0  0  0  0  0  0  0  0  0
   -0.1890   -8.5420  -27.1580 H   0  0  0  0  0  0  0  0  0  0  0  0
   -1.0700   -9.5590  -25.6180 C   0  0  0  0  0  0  0  0  0  0  0  0
   -0.9040  -10.8020  -26.0940 N   0  0  0  0  0  0  0  0  0  0  0  0
   -1.0070  -11.7960  -25.2140 C   0  0  0  0  0  3  0  0  0  0  0  0
   -1.2610  -11.6640  -23.9120 N   0  0  0  0  0  0  0  0  0  0  0  0
   -1.4020  -10.4310  -23.3990 C   0  0  0  0  0  0  0  0  0  0  0  0
   -1.6540  -10.2030  -22.0240 C   0  0  0  0  0  0  0  0  0  0  0  0
   -1.8030   -8.8920  -21.5270 C   0  0  0  0  0  3  0  0  0  0  0  0
   -1.7000   -7.7970  -22.3710 C   0  0  0  0  0  3  0  0  0  0  0  0
   -1.4430   -8.0040  -23.7150 C   0  0  0  0  0  3  0  0  0  0  0  0
   -1.3030   -9.3090  -24.2480 C   0  0  0  0  0  0  0  0  0  0  0  0
   -1.7370  -11.3680  -21.0720 C   0  0  0  0  0  0  0  0  0  0  0  0
   -0.6390  -12.1830  -20.9360 N   0  0  0  0  0  0  0  0  0  0  0  0
   -2.7250  -11.6520  -20.4110 O   0  0  0  0  0  0  0  0  0  0  0  0
   -0.7480  -12.9570  -20.2940 H   0  0  0  0  0  0  0  0  0  0  0  0
    0.2550  -12.0720  -21.3830 H   0  0  0  0  0  0  0  0  0  0  0  0
  2  3  2  0  0  0  0
  2  7  1  0  0  0  0
  3  4  1  0  0  0  0
  4  5  2  0  0  0  0
  5  6  1  0  0  0  0
  6  1  1  0  0  0  0
  7  6  2  0  0  0  0
  8 18  1  0  0  0  0
  9  8  2  0  0  0  0
 10  2  1  0  0  0  0
 10  8  1  0  0  0  0
 11 10  1  0  0  0  0
 12 13  1  0  0  0  0
 13 18  2  0  0  0  0
 13 14  1  0  0  0  0
 14 15  2  0  0  0  0
 15 16  1  0  0  0  0
 17 16  2  0  0  0  0
 18 17  1  0  0  0  0
 19  1  1  0  0  0  0
 19 21  1  0  0  0  0
 20 19  1  0  0  0  0
 21 30  1  0  0  0  0
 22 21  2  0  0  0  0
 22 23  1  0  0  0  0
 23 24  2  0  0  0  0
 24 25  1  0  0  0  0
 25 26  1  0  0  0  0
 26 27  2  0  0  0  0
 26 31  1  0  0  0  0
 28 27  1  0  0  0  0
 29 28  2  0  0  0  0
 30 29  1  0  0  0  0
 30 25  2  0  0  0  0
 31 32  1  0  0  0  0
 31 33  2  0  0  0  0
 32 34  1  0  0  0  0
 35 32  1  0  0  0  0
M  END
>  <minimizedAffinity>
-8.24312496

$$$$
