
 OpenBabel10152419463D

 35 38  0  0  0  0  0  0  0  0999 V2000
    2.5560   -9.2100  -24.8830 C   0  0  0  0  0  2  0  0  0  0  0  0
    3.1130   -7.1200  -28.0070 C   0  0  0  0  0  0  0  0  0  0  0  0
    3.9260   -7.9470  -28.7780 C   0  0  0  0  0  3  0  0  0  0  0  0
    4.3630   -9.1670  -28.2530 C   0  0  0  0  0  3  0  0  0  0  0  0
    3.9420   -9.5830  -26.9860 C   0  0  0  0  0  3  0  0  0  0  0  0
    3.1170   -8.7600  -26.2130 C   0  0  0  0  0  0  0  0  0  0  0  0
    2.7720   -7.4930  -26.7050 C   0  0  0  0  0  3  0  0  0  0  0  0
    1.2890   -5.4010  -28.3110 C   0  0  0  0  0  0  0  0  0  0  0  0
    0.9900   -4.4240  -29.0030 O   0  0  0  0  0  0  0  0  0  0  0  0
    2.5420   -5.9360  -28.4750 N   0  0  0  0  0  0  0  0  0  0  0  0
    3.1590   -5.2860  -28.9480 H   0  0  0  0  0  0  0  0  0  0  0  0
   -0.3080   -3.5610  -26.2690 C   0  0  0  0  0  1  0  0  0  0  0  0
   -0.4140   -5.0560  -26.3780 C   0  0  0  0  0  0  0  0  0  0  0  0
   -1.3500   -5.6660  -25.5150 C   0  0  0  0  0  3  0  0  0  0  0  0
   -1.6570   -7.0200  -25.6190 C   0  0  0  0  0  3  0  0  0  0  0  0
   -1.0190   -7.7990  -26.5720 C   0  0  0  0  0  3  0  0  0  0  0  0
   -0.0410   -7.2290  -27.3870 C   0  0  0  0  0  3  0  0  0  0  0  0
    0.3020   -5.8650  -27.2860 C   0  0  0  0  0  0  0  0  0  0  0  0
    1.3800  -10.0180  -25.1270 N   0  0  0  0  0  0  0  0  0  0  0  0
    1.2700  -10.3030  -26.0890 H   0  0  0  0  0  0  0  0  0  0  0  0
    0.9060  -10.9140  -24.1710 C   0  0  0  0  0  0  0  0  0  0  0  0
    1.4700  -12.1290  -24.1110 N   0  0  0  0  0  0  0  0  0  0  0  0
    0.9980  -12.9590  -23.1820 C   0  0  0  0  0  3  0  0  0  0  0  0
    0.0210  -12.6890  -22.3170 N   0  0  0  0  0  0  0  0  0  0  0  0
   -0.5430  -11.4700  -22.3330 C   0  0  0  0  0  0  0  0  0  0  0  0
   -1.5730  -11.0960  -21.4340 C   0  0  0  0  0  0  0  0  0  0  0  0
   -2.1430   -9.8080  -21.4890 C   0  0  0  0  0  3  0  0  0  0  0  0
   -1.7050   -8.8760  -22.4170 C   0  0  0  0  0  3  0  0  0  0  0  0
   -0.6910   -9.2240  -23.2930 C   0  0  0  0  0  3  0  0  0  0  0  0
   -0.1080  -10.5140  -23.2740 C   0  0  0  0  0  0  0  0  0  0  0  0
   -2.0490  -12.0720  -20.3890 C   0  0  0  0  0  0  0  0  0  0  0  0
   -1.1260  -12.6090  -19.5240 N   0  0  0  0  0  0  0  0  0  0  0  0
   -3.2100  -12.4340  -20.2590 O   0  0  0  0  0  0  0  0  0  0  0  0
   -1.4940  -13.2670  -18.8490 H   0  0  0  0  0  0  0  0  0  0  0  0
   -0.1450  -12.3950  -19.4790 H   0  0  0  0  0  0  0  0  0  0  0  0
  2  7  1  0  0  0  0
  3  4  1  0  0  0  0
  3  2  2  0  0  0  0
  4  5  2  0  0  0  0
  5  6  1  0  0  0  0
  6  1  1  0  0  0  0
  7  6  2  0  0  0  0
  8 18  1  0  0  0  0
  9  8  2  0  0  0  0
 10  8  1  0  0  0  0
 10  2  1  0  0  0  0
 11 10  1  0  0  0  0
 13 12  1  0  0  0  0
 13 14  1  0  0  0  0
 15 14  2  0  0  0  0
 16 15  1  0  0  0  0
 17 18  1  0  0  0  0
 17 16  2  0  0  0  0
 18 13  2  0  0  0  0
 19  1  1  0  0  0  0
 19 21  1  0  0  0  0
 20 19  1  0  0  0  0
 21 22  2  0  0  0  0
 21 30  1  0  0  0  0
 22 23  1  0  0  0  0
 23 24  2  0  0  0  0
 25 24  1  0  0  0  0
 25 26  1  0  0  0  0
 26 31  1  0  0  0  0
 27 26  2  0  0  0  0
 28 27  1  0  0  0  0
 29 30  1  0  0  0  0
 29 28  2  0  0  0  0
 30 25  2  0  0  0  0
 31 33  2  0  0  0  0
 31 32  1  0  0  0  0
 32 35  1  0  0  0  0
 32 34  1  0  0  0  0
M  END
>  <minimizedAffinity>
-8.09797668

$$$$
