
 OpenBabel10152419463D

 35 38  0  0  0  0  0  0  0  0999 V2000
   -1.5700   -8.8310  -23.4110 C   0  0  0  0  0  2  0  0  0  0  0  0
    0.6770  -11.3970  -25.0880 C   0  0  0  0  0  0  0  0  0  0  0  0
    0.0780  -11.5480  -26.3360 C   0  0  0  0  0  3  0  0  0  0  0  0
   -1.1110  -10.8670  -26.6170 C   0  0  0  0  0  3  0  0  0  0  0  0
   -1.6660   -9.9960  -25.6730 C   0  0  0  0  0  3  0  0  0  0  0  0
   -1.0620   -9.8350  -24.4220 C   0  0  0  0  0  0  0  0  0  0  0  0
    0.0690  -10.6030  -24.1120 C   0  0  0  0  0  3  0  0  0  0  0  0
    3.1410  -11.8800  -25.3550 C   0  0  0  0  0  0  0  0  0  0  0  0
    4.0270  -12.6320  -24.9380 O   0  0  0  0  0  0  0  0  0  0  0  0
    1.9120  -11.9500  -24.7470 N   0  0  0  0  0  0  0  0  0  0  0  0
    1.9730  -12.4160  -23.8490 H   0  0  0  0  0  0  0  0  0  0  0  0
    3.6150  -12.5220  -28.4320 C   0  0  0  0  0  1  0  0  0  0  0  0
    3.7090  -11.1670  -27.7890 C   0  0  0  0  0  0  0  0  0  0  0  0
    3.9890  -10.0940  -28.6630 C   0  0  0  0  0  3  0  0  0  0  0  0
    3.9520   -8.7730  -28.2250 C   0  0  0  0  0  3  0  0  0  0  0  0
    3.6570   -8.4970  -26.8980 C   0  0  0  0  0  3  0  0  0  0  0  0
    3.4470   -9.5460  -26.0040 C   0  0  0  0  0  3  0  0  0  0  0  0
    3.4990  -10.8920  -26.4200 C   0  0  0  0  0  0  0  0  0  0  0  0
   -0.5280   -7.8570  -23.1650 N   0  0  0  0  0  0  0  0  0  0  0  0
    0.4010   -8.2490  -23.1280 H   0  0  0  0  0  0  0  0  0  0  0  0
   -0.6190   -6.5600  -23.6640 C   0  0  0  0  0  0  0  0  0  0  0  0
   -1.0800   -5.6000  -22.8480 N   0  0  0  0  0  0  0  0  0  0  0  0
   -1.1480   -4.3700  -23.3540 C   0  0  0  0  0  3  0  0  0  0  0  0
   -0.8030   -4.0140  -24.5910 N   0  0  0  0  0  0  0  0  0  0  0  0
   -0.3100   -4.9460  -25.4230 C   0  0  0  0  0  0  0  0  0  0  0  0
    0.0990   -4.6470  -26.7460 C   0  0  0  0  0  0  0  0  0  0  0  0
    0.6050   -5.6570  -27.5890 C   0  0  0  0  0  3  0  0  0  0  0  0
    0.7210   -6.9640  -27.1410 C   0  0  0  0  0  3  0  0  0  0  0  0
    0.3370   -7.2690  -25.8460 C   0  0  0  0  0  3  0  0  0  0  0  0
   -0.1890   -6.2800  -24.9800 C   0  0  0  0  0  0  0  0  0  0  0  0
    0.0200   -3.2310  -27.2550 C   0  0  0  0  0  0  0  0  0  0  0  0
   -1.0060   -2.4320  -26.8120 N   0  0  0  0  0  0  0  0  0  0  0  0
    0.8050   -2.7370  -28.0510 O   0  0  0  0  0  0  0  0  0  0  0  0
   -1.0220   -1.4930  -27.1910 H   0  0  0  0  0  0  0  0  0  0  0  0
   -1.7140   -2.6740  -26.1390 H   0  0  0  0  0  0  0  0  0  0  0  0
  1 19  1  0  0  0  0
  2 10  1  0  0  0  0
  2  7  1  0  0  0  0
  3  2  2  0  0  0  0
  4  3  1  0  0  0  0
  4  5  2  0  0  0  0
  5  6  1  0  0  0  0
  6  7  2  0  0  0  0
  6  1  1  0  0  0  0
  8  9  2  0  0  0  0
  8 10  1  0  0  0  0
 10 11  1  0  0  0  0
 12 13  1  0  0  0  0
 13 18  1  0  0  0  0
 14 15  1  0  0  0  0
 14 13  2  0  0  0  0
 15 16  2  0  0  0  0
 16 17  1  0  0  0  0
 18 17  2  0  0  0  0
 18  8  1  0  0  0  0
 19 20  1  0  0  0  0
 21 19  1  0  0  0  0
 21 22  1  0  0  0  0
 23 22  2  0  0  0  0
 24 23  1  0  0  0  0
 25 30  1  0  0  0  0
 25 24  2  0  0  0  0
 26 25  1  0  0  0  0
 27 28  1  0  0  0  0
 27 26  2  0  0  0  0
 28 29  2  0  0  0  0
 29 30  1  0  0  0  0
 30 21  2  0  0  0  0
 31 32  1  0  0  0  0
 31 26  1  0  0  0  0
 32 35  1  0  0  0  0
 33 31  2  0  0  0  0
 34 32  1  0  0  0  0
M  END
>  <minimizedAffinity>
-7.39684105

$$$$
