
 OpenBabel10152418403D

 36 39  0  0  0  0  0  0  0  0999 V2000
    0.8990  -12.0390  -26.5820 C   0  0  0  0  0  2  0  0  0  0  0  0
   -1.8500   -9.6030  -21.6850 C   0  0  0  0  0  0  0  0  0  0  0  0
   -1.7270  -10.6660  -20.7780 C   0  0  0  0  0  3  0  0  0  0  0  0
   -1.1270  -11.8450  -21.1870 C   0  0  0  0  0  3  0  0  0  0  0  0
   -0.6480  -11.9420  -22.4910 C   0  0  0  0  0  3  0  0  0  0  0  0
   -0.7530  -10.8600  -23.4070 C   0  0  0  0  0  0  0  0  0  0  0  0
   -0.2560  -10.8820  -24.7290 C   0  0  0  0  0  0  0  0  0  0  0  0
    0.4050  -12.0030  -25.2150 N   0  0  0  0  0  0  0  0  0  0  0  0
   -0.4260   -9.8460  -25.5660 N   0  0  0  0  0  0  0  0  0  0  0  0
   -1.0370   -8.7660  -25.0790 C   0  0  0  0  0  3  0  0  0  0  0  0
   -1.4950   -8.6190  -23.8360 N   0  0  0  0  0  0  0  0  0  0  0  0
   -1.3780   -9.6670  -23.0020 C   0  0  0  0  0  0  0  0  0  0  0  0
    0.9270  -12.5550  -24.5510 H   0  0  0  0  0  0  0  0  0  0  0  0
   -3.5610   -7.9400  -21.9770 N   0  0  0  0  0  0  0  0  0  0  0  0
   -2.5260   -8.3850  -21.2030 C   0  0  0  0  0  0  0  0  0  0  0  0
   -2.1470   -7.7770  -20.2120 O   0  0  0  0  0  0  0  0  0  0  0  0
   -4.0450   -7.1050  -21.6740 H   0  0  0  0  0  0  0  0  0  0  0  0
   -3.9030   -8.4380  -22.7870 H   0  0  0  0  0  0  0  0  0  0  0  0
    2.2120  -11.2890  -26.6580 C   0  0  0  0  0  0  0  0  0  0  0  0
    3.4000  -11.8570  -26.1910 C   0  0  0  0  0  3  0  0  0  0  0  0
    4.5960  -11.1470  -26.2860 C   0  0  0  0  0  3  0  0  0  0  0  0
    4.6140   -9.8630  -26.8410 C   0  0  0  0  0  3  0  0  0  0  0  0
    3.4410   -9.2650  -27.3080 C   0  0  0  0  0  0  0  0  0  0  0  0
    2.2530  -10.0020  -27.2270 C   0  0  0  0  0  3  0  0  0  0  0  0
    3.3910   -7.9840  -27.8720 N   0  0  0  0  0  0  0  0  0  0  0  0
    2.4660   -6.9460  -27.8450 C   0  0  0  0  0  0  0  0  0  0  0  0
    1.5610   -6.7560  -26.8090 C   0  0  0  0  0  3  0  0  0  0  0  0
    0.6760   -5.6690  -26.8490 C   0  0  0  0  0  0  0  0  0  0  0  0
    0.7180   -4.8150  -27.9510 C   0  0  0  0  0  3  0  0  0  0  0  0
    1.6590   -5.0620  -28.9310 C   0  0  0  0  0  3  0  0  0  0  0  0
    2.5320   -6.0920  -28.8880 N   0  0  0  0  0  0  0  0  0  0  0  0
    4.0480   -7.8260  -28.6270 H   0  0  0  0  0  0  0  0  0  0  0  0
   -0.3160   -5.4460  -25.7410 C   0  0  0  0  0  0  0  0  0  0  0  0
   -0.6990   -4.1430  -25.6300 F   0  0  0  0  0  0  0  0  0  0  0  0
   -1.4600   -6.1590  -25.9240 F   0  0  0  0  0  0  0  0  0  0  0  0
    0.1570   -5.8010  -24.5160 F   0  0  0  0  0  0  0  0  0  0  0  0
  1  8  1  0  0  0  0
  2 15  1  0  0  0  0
  2  3  1  0  0  0  0
  4  3  2  0  0  0  0
  5  4  1  0  0  0  0
  6 12  1  0  0  0  0
  6  5  2  0  0  0  0
  7  6  1  0  0  0  0
  8  7  1  0  0  0  0
  8 13  1  0  0  0  0
  9 10  1  0  0  0  0
  9  7  2  0  0  0  0
 10 11  2  0  0  0  0
 11 12  1  0  0  0  0
 12  2  2  0  0  0  0
 14 17  1  0  0  0  0
 14 15  1  0  0  0  0
 15 16  2  0  0  0  0
 18 14  1  0  0  0  0
 19  1  1  0  0  0  0
 19 20  1  0  0  0  0
 21 20  2  0  0  0  0
 22 21  1  0  0  0  0
 23 24  1  0  0  0  0
 23 22  2  0  0  0  0
 24 19  2  0  0  0  0
 25 26  1  0  0  0  0
 25 23  1  0  0  0  0
 26 27  1  0  0  0  0
 28 27  2  0  0  0  0
 28 33  1  0  0  0  0
 29 28  1  0  0  0  0
 30 31  1  0  0  0  0
 30 29  2  0  0  0  0
 31 26  2  0  0  0  0
 32 25  1  0  0  0  0
 33 34  1  0  0  0  0
 33 36  1  0  0  0  0
 35 33  1  0  0  0  0
M  END
>  <minimizedAffinity>
-8.66262436

$$$$
