
 OpenBabel10152418403D

 36 39  0  0  0  0  0  0  0  0999 V2000
   -1.1560   -5.7450  -26.7390 C   0  0  0  0  0  2  0  0  0  0  0  0
   -1.4150  -10.1550  -22.5010 C   0  0  0  0  0  0  0  0  0  0  0  0
   -1.3760  -11.2910  -23.3230 C   0  0  0  0  0  3  0  0  0  0  0  0
   -1.3300  -11.1350  -24.6990 C   0  0  0  0  0  3  0  0  0  0  0  0
   -1.3140   -9.8500  -25.2330 C   0  0  0  0  0  3  0  0  0  0  0  0
   -1.3340   -8.6950  -24.4020 C   0  0  0  0  0  0  0  0  0  0  0  0
   -1.2830   -7.3670  -24.8800 C   0  0  0  0  0  0  0  0  0  0  0  0
   -1.1860   -7.1100  -26.2410 N   0  0  0  0  0  0  0  0  0  0  0  0
   -1.3520   -6.3140  -24.0490 N   0  0  0  0  0  0  0  0  0  0  0  0
   -1.4160   -6.5730  -22.7430 C   0  0  0  0  0  3  0  0  0  0  0  0
   -1.4160   -7.7840  -22.1840 N   0  0  0  0  0  0  0  0  0  0  0  0
   -1.3980   -8.8480  -23.0050 C   0  0  0  0  0  0  0  0  0  0  0  0
   -0.6960   -7.7890  -26.8050 H   0  0  0  0  0  0  0  0  0  0  0  0
   -1.1820  -11.6450  -20.6290 N   0  0  0  0  0  0  0  0  0  0  0  0
   -1.4950  -10.3810  -21.0470 C   0  0  0  0  0  0  0  0  0  0  0  0
   -1.8750   -9.5160  -20.2710 O   0  0  0  0  0  0  0  0  0  0  0  0
   -1.2280  -11.8330  -19.6370 H   0  0  0  0  0  0  0  0  0  0  0  0
   -0.8460  -12.3680  -21.2500 H   0  0  0  0  0  0  0  0  0  0  0  0
    0.1780   -5.4880  -27.4080 C   0  0  0  0  0  0  0  0  0  0  0  0
    0.5940   -4.1920  -27.7240 C   0  0  0  0  0  3  0  0  0  0  0  0
    1.8340   -3.9860  -28.3280 C   0  0  0  0  0  3  0  0  0  0  0  0
    2.6640   -5.0710  -28.6280 C   0  0  0  0  0  3  0  0  0  0  0  0
    2.2710   -6.3790  -28.3330 C   0  0  0  0  0  0  0  0  0  0  0  0
    1.0330   -6.5660  -27.7030 C   0  0  0  0  0  3  0  0  0  0  0  0
    3.0540   -7.5080  -28.6070 N   0  0  0  0  0  0  0  0  0  0  0  0
    3.4170   -8.6380  -27.8820 C   0  0  0  0  0  0  0  0  0  0  0  0
    2.6570   -9.1550  -26.8420 C   0  0  0  0  0  3  0  0  0  0  0  0
    3.0840  -10.3120  -26.1760 C   0  0  0  0  0  0  0  0  0  0  0  0
    4.2850  -10.9030  -26.5700 C   0  0  0  0  0  3  0  0  0  0  0  0
    4.9740  -10.3370  -27.6250 C   0  0  0  0  0  3  0  0  0  0  0  0
    4.5560   -9.2380  -28.2880 N   0  0  0  0  0  0  0  0  0  0  0  0
    3.6620   -7.4190  -29.4130 H   0  0  0  0  0  0  0  0  0  0  0  0
    2.2810  -10.8880  -25.0440 C   0  0  0  0  0  0  0  0  0  0  0  0
    2.9510  -11.8560  -24.3580 F   0  0  0  0  0  0  0  0  0  0  0  0
    1.9400   -9.9460  -24.1230 F   0  0  0  0  0  0  0  0  0  0  0  0
    1.1130  -11.4590  -25.4480 F   0  0  0  0  0  0  0  0  0  0  0  0
  1  8  1  0  0  0  0
  2 15  1  0  0  0  0
  3  2  2  0  0  0  0
  4  3  1  0  0  0  0
  5  4  2  0  0  0  0
  5  6  1  0  0  0  0
  6 12  1  0  0  0  0
  7  6  2  0  0  0  0
  7  9  1  0  0  0  0
  8  7  1  0  0  0  0
  9 10  2  0  0  0  0
 10 11  1  0  0  0  0
 12  2  1  0  0  0  0
 12 11  2  0  0  0  0
 13  8  1  0  0  0  0
 14 17  1  0  0  0  0
 15 14  1  0  0  0  0
 15 16  2  0  0  0  0
 18 14  1  0  0  0  0
 19  1  1  0  0  0  0
 20 19  2  0  0  0  0
 21 20  1  0  0  0  0
 22 23  1  0  0  0  0
 22 21  2  0  0  0  0
 23 24  2  0  0  0  0
 24 19  1  0  0  0  0
 25 23  1  0  0  0  0
 25 26  1  0  0  0  0
 26 27  1  0  0  0  0
 27 28  2  0  0  0  0
 28 33  1  0  0  0  0
 29 28  1  0  0  0  0
 30 29  2  0  0  0  0
 31 26  2  0  0  0  0
 31 30  1  0  0  0  0
 32 25  1  0  0  0  0
 33 34  1  0  0  0  0
 33 35  1  0  0  0  0
 36 33  1  0  0  0  0
M  END
>  <minimizedAffinity>
-7.92624569

$$$$
