REMARK  Name = 
REMARK  5 active torsions:
REMARK  status: ('A' for Active; 'I' for Inactive)
REMARK    1  A    between atoms: C_2  and  C_4
REMARK    2  A    between atoms: N_10  and  C_11
REMARK    3  A    between atoms: C_11  and  C_12
REMARK    4  A    between atoms: C_16  and  N_17
REMARK    5  A    between atoms: C_20  and  C_21
REMARK                            x       y       z     vdW  Elec       q    Type
REMARK                         _______ _______ _______ _____ _____    ______ ____
ROOT
ATOM      1  C   UNL     1       0.986  -6.819  -5.016  0.00  0.00    +0.138 C 
ENDROOT
BRANCH   1   8
ATOM      2  C   UNL     1       0.905  -2.464  -0.715  0.00  0.00    +0.063 A 
ATOM      3  C   UNL     1       1.942  -2.916   0.115  0.00  0.00    +0.015 A 
ATOM      4  C   UNL     1       2.601  -4.093  -0.198  0.00  0.00    +0.002 A 
ATOM      5  C   UNL     1       2.223  -4.796  -1.339  0.00  0.00    +0.013 A 
ATOM      6  C   UNL     1       1.185  -4.331  -2.193  0.00  0.00    +0.041 A 
ATOM      7  C   UNL     1       0.780  -4.977  -3.382  0.00  0.00    +0.130 A 
ATOM      8  N   UNL     1       1.414  -6.138  -3.805  0.00  0.00    -0.324 N 
ATOM      9  N   UNL     1      -0.239  -4.516  -4.125  0.00  0.00    -0.220 NA
ATOM     10  C   UNL     1      -0.821  -3.386  -3.724  0.00  0.00    +0.223 A 
ATOM     11  N   UNL     1      -0.483  -2.669  -2.652  0.00  0.00    -0.235 NA
ATOM     12  C   UNL     1       0.501  -3.145  -1.870  0.00  0.00    +0.088 A 
ATOM     13  H   UNL     1       2.390  -6.242  -3.571  0.00  0.00    +0.148 HD
BRANCH   2  15
ATOM     14  N   UNL     1       0.978  -0.086  -0.368  0.00  0.00    -0.325 N 
ATOM     15  C   UNL     1       0.219  -1.222  -0.315  0.00  0.00    +0.244 C 
ATOM     16  O   UNL     1      -0.933  -1.216   0.096  0.00  0.00    -0.270 OA
ATOM     17  H   UNL     1       0.536   0.783  -0.099  0.00  0.00    +0.145 HD
ATOM     18  H   UNL     1       1.923  -0.066  -0.724  0.00  0.00    +0.145 HD
ENDBRANCH   2  15
ENDBRANCH   1   8
BRANCH   1  19
ATOM     19  C   UNL     1       2.205  -7.232  -5.813  0.00  0.00    -0.029 A 
ATOM     20  C   UNL     1       2.434  -8.569  -6.150  0.00  0.00    +0.005 A 
ATOM     21  C   UNL     1       3.559  -8.917  -6.896  0.00  0.00    +0.002 A 
ATOM     22  C   UNL     1       4.468  -7.935  -7.305  0.00  0.00    +0.023 A 
ATOM     23  C   UNL     1       4.272  -6.592  -6.975  0.00  0.00    +0.033 A 
ATOM     24  C   UNL     1       3.123  -6.257  -6.246  0.00  0.00    +0.028 A 
BRANCH  23  25
ATOM     25  N   UNL     1       5.143  -5.562  -7.352  0.00  0.00    -0.299 N 
ATOM     26  C   UNL     1       6.119  -5.425  -8.333  0.00  0.00    +0.123 A 
ATOM     27  C   UNL     1       6.114  -6.143  -9.521  0.00  0.00    +0.056 A 
ATOM     28  C   UNL     1       7.125  -5.929 -10.468  0.00  0.00    +0.059 A 
ATOM     29  C   UNL     1       8.129  -5.006 -10.174  0.00  0.00    +0.032 A 
ATOM     30  C   UNL     1       8.053  -4.320  -8.978  0.00  0.00    +0.113 A 
ATOM     31  N   UNL     1       7.069  -4.502  -8.072  0.00  0.00    -0.240 NA
ATOM     32  H   UNL     1       5.257  -4.828  -6.663  0.00  0.00    +0.154 HD
BRANCH  28  33
ATOM     33  C   UNL     1       7.143  -6.698 -11.760  0.00  0.00    +0.418 C 
ATOM     34  F   UNL     1       7.662  -5.980 -12.795  0.00  0.00    -0.166 F 
ATOM     35  F   UNL     1       7.895  -7.829 -11.675  0.00  0.00    -0.166 F 
ATOM     36  F   UNL     1       5.907  -7.097 -12.166  0.00  0.00    -0.166 F 
ENDBRANCH  28  33
ENDBRANCH  23  25
ENDBRANCH   1  19
TORSDOF 5
