REMARK  Name = 
REMARK  5 active torsions:
REMARK  status: ('A' for Active; 'I' for Inactive)
REMARK    1  A    between atoms: C_2  and  C_4
REMARK    2  A    between atoms: N_10  and  C_11
REMARK    3  A    between atoms: C_11  and  C_12
REMARK    4  A    between atoms: C_16  and  N_17
REMARK    5  A    between atoms: C_20  and  C_21
REMARK                            x       y       z     vdW  Elec       q    Type
REMARK                         _______ _______ _______ _____ _____    ______ ____
ROOT
ATOM      1  C   UNL     1       0.762  -3.211  -7.796  0.00  0.00    +0.138 C 
ENDROOT
BRANCH   1   8
ATOM      2  C   UNL     1       0.828  -1.708  -1.867  0.00  0.00    +0.063 A 
ATOM      3  C   UNL     1       1.892  -2.511  -1.428  0.00  0.00    +0.015 A 
ATOM      4  C   UNL     1       2.548  -3.327  -2.334  0.00  0.00    +0.002 A 
ATOM      5  C   UNL     1       2.141  -3.323  -3.665  0.00  0.00    +0.013 A 
ATOM      6  C   UNL     1       1.073  -2.498  -4.115  0.00  0.00    +0.041 A 
ATOM      7  C   UNL     1       0.634  -2.429  -5.454  0.00  0.00    +0.130 A 
ATOM      8  N   UNL     1       1.278  -3.168  -6.440  0.00  0.00    -0.324 N 
ATOM      9  N   UNL     1      -0.417  -1.677  -5.818  0.00  0.00    -0.220 NA
ATOM     10  C   UNL     1      -0.995  -0.945  -4.866  0.00  0.00    +0.223 A 
ATOM     11  N   UNL     1      -0.625  -0.891  -3.585  0.00  0.00    -0.235 NA
ATOM     12  C   UNL     1       0.390  -1.681  -3.197  0.00  0.00    +0.088 A 
ATOM     13  H   UNL     1       2.283  -3.240  -6.355  0.00  0.00    +0.148 HD
BRANCH   2  15
ATOM     14  N   UNL     1       0.894   0.154  -0.351  0.00  0.00    -0.325 N 
ATOM     15  C   UNL     1       0.153  -0.879  -0.854  0.00  0.00    +0.244 C 
ATOM     16  O   UNL     1      -0.971  -1.137  -0.443  0.00  0.00    -0.270 OA
ATOM     17  H   UNL     1       0.462   0.742   0.349  0.00  0.00    +0.145 HD
ATOM     18  H   UNL     1       1.815   0.392  -0.691  0.00  0.00    +0.145 HD
ENDBRANCH   2  15
ENDBRANCH   1   8
BRANCH   1  19
ATOM     19  C   UNL     1       1.927  -3.116  -8.755  0.00  0.00    -0.029 A 
ATOM     20  C   UNL     1       2.460  -4.251  -9.369  0.00  0.00    +0.005 A 
ATOM     21  C   UNL     1       3.562  -4.131 -10.213  0.00  0.00    +0.002 A 
ATOM     22  C   UNL     1       4.144  -2.879 -10.443  0.00  0.00    +0.023 A 
ATOM     23  C   UNL     1       3.643  -1.728  -9.831  0.00  0.00    +0.033 A 
ATOM     24  C   UNL     1       2.527  -1.867  -8.993  0.00  0.00    +0.028 A 
BRANCH  23  25
ATOM     25  N   UNL     1       4.160  -0.443 -10.035  0.00  0.00    -0.299 N 
ATOM     26  C   UNL     1       4.940   0.165 -11.011  0.00  0.00    +0.123 A 
ATOM     27  C   UNL     1       5.100  -0.334 -12.296  0.00  0.00    +0.056 A 
ATOM     28  C   UNL     1       5.895   0.359 -13.220  0.00  0.00    +0.059 A 
ATOM     29  C   UNL     1       6.515   1.540 -12.814  0.00  0.00    +0.032 A 
ATOM     30  C   UNL     1       6.290   1.982 -11.526  0.00  0.00    +0.113 A 
ATOM     31  N   UNL     1       5.517   1.327 -10.634  0.00  0.00    -0.240 NA
ATOM     32  H   UNL     1       4.084   0.181  -9.239  0.00  0.00    +0.154 HD
BRANCH  28  33
ATOM     33  C   UNL     1       6.100  -0.182 -14.608  0.00  0.00    +0.418 C 
ATOM     34  F   UNL     1       6.349   0.791 -15.528  0.00  0.00    -0.166 F 
ATOM     35  F   UNL     1       7.155  -1.039 -14.676  0.00  0.00    -0.166 F 
ATOM     36  F   UNL     1       5.025  -0.872 -15.078  0.00  0.00    -0.166 F 
ENDBRANCH  28  33
ENDBRANCH  23  25
ENDBRANCH   1  19
TORSDOF 5
