
 OpenBabel10152418203D

 35 38  0  0  0  0  0  0  0  0999 V2000
    2.4460  -11.3640  -24.3250 C   0  0  0  0  0  2  0  0  0  0  0  0
    4.5580   -9.2090  -29.6500 C   0  0  0  0  0  0  0  0  0  0  0  0
    4.9540  -10.4120  -30.2540 C   0  0  0  0  0  3  0  0  0  0  0  0
    4.8050  -11.6020  -29.5620 C   0  0  0  0  0  3  0  0  0  0  0  0
    4.2520  -11.5750  -28.2850 C   0  0  0  0  0  3  0  0  0  0  0  0
    3.8330  -10.3590  -27.6770 C   0  0  0  0  0  0  0  0  0  0  0  0
    3.2340  -10.2720  -26.4030 C   0  0  0  0  0  0  0  0  0  0  0  0
    2.9840  -11.4270  -25.6710 N   0  0  0  0  0  0  0  0  0  0  0  0
    2.9070   -9.0940  -25.8490 N   0  0  0  0  0  0  0  0  0  0  0  0
    3.1190   -8.0030  -26.5870 C   0  0  0  0  0  3  0  0  0  0  0  0
    3.6210   -7.9760  -27.8230 N   0  0  0  0  0  0  0  0  0  0  0  0
    4.0020   -9.1440  -28.3660 C   0  0  0  0  0  0  0  0  0  0  0  0
    2.7030  -12.2350  -26.2100 H   0  0  0  0  0  0  0  0  0  0  0  0
    4.6290   -6.8090  -29.7170 N   0  0  0  0  0  0  0  0  0  0  0  0
    4.7630   -7.9720  -30.4250 C   0  0  0  0  0  0  0  0  0  0  0  0
    4.9720   -7.9820  -31.6290 O   0  0  0  0  0  0  0  0  0  0  0  0
    4.7610   -5.9400  -30.2180 H   0  0  0  0  0  0  0  0  0  0  0  0
    4.4750   -6.7810  -28.7190 H   0  0  0  0  0  0  0  0  0  0  0  0
    0.9490  -11.1740  -24.4360 C   0  0  0  0  0  0  0  0  0  0  0  0
    0.1640  -12.0390  -25.2030 C   0  0  0  0  0  3  0  0  0  0  0  0
   -1.1890  -11.7690  -25.3860 C   0  0  0  0  0  3  0  0  0  0  0  0
   -1.7720  -10.6330  -24.8110 C   0  0  0  0  0  3  0  0  0  0  0  0
   -1.0170   -9.7700  -24.0190 C   0  0  0  0  0  0  0  0  0  0  0  0
    0.3470  -10.0450  -23.8510 C   0  0  0  0  0  3  0  0  0  0  0  0
   -1.4880   -8.5860  -23.4240 N   0  0  0  0  0  0  0  0  0  0  0  0
   -1.2960   -7.2520  -23.6840 C   0  0  0  0  0  0  0  0  0  0  0  0
   -1.6280   -6.4140  -22.8450 O   0  0  0  0  0  0  0  0  0  0  0  0
   -2.0470   -8.7040  -22.5850 H   0  0  0  0  0  0  0  0  0  0  0  0
   -0.7520   -6.7670  -24.9620 C   0  0  0  0  0  0  0  0  0  0  0  0
   -0.4170   -5.4140  -25.0760 C   0  0  0  0  0  3  0  0  0  0  0  0
    0.0700   -4.9210  -26.2880 C   0  0  0  0  0  3  0  0  0  0  0  0
    0.1970   -5.7780  -27.3820 C   0  0  0  0  0  0  0  0  0  0  0  0
    0.8010   -5.1710  -28.8740 Cl  0  0  0  0  0  0  0  0  0  0  0  0
   -0.1660   -7.1230  -27.2790 C   0  0  0  0  0  3  0  0  0  0  0  0
   -0.6530   -7.6200  -26.0670 C   0  0  0  0  0  3  0  0  0  0  0  0
  2 12  1  0  0  0  0
  3  2  2  0  0  0  0
  3  4  1  0  0  0  0
  4  5  2  0  0  0  0
  5  6  1  0  0  0  0
  6  7  1  0  0  0  0
  7  9  2  0  0  0  0
  7  8  1  0  0  0  0
  8  1  1  0  0  0  0
 10  9  1  0  0  0  0
 11 10  2  0  0  0  0
 12 11  1  0  0  0  0
 12  6  2  0  0  0  0
 13  8  1  0  0  0  0
 14 18  1  0  0  0  0
 15 14  1  0  0  0  0
 15  2  1  0  0  0  0
 16 15  2  0  0  0  0
 17 14  1  0  0  0  0
 19  1  1  0  0  0  0
 19 24  1  0  0  0  0
 20 19  2  0  0  0  0
 21 20  1  0  0  0  0
 21 22  2  0  0  0  0
 22 23  1  0  0  0  0
 23 24  2  0  0  0  0
 23 25  1  0  0  0  0
 25 28  1  0  0  0  0
 26 25  1  0  0  0  0
 26 27  2  0  0  0  0
 29 26  1  0  0  0  0
 30 29  1  0  0  0  0
 31 30  2  0  0  0  0
 32 34  2  0  0  0  0
 32 31  1  0  0  0  0
 33 32  1  0  0  0  0
 34 35  1  0  0  0  0
 35 29  2  0  0  0  0
M  END
>  <minimizedAffinity>
-9.32442093

$$$$

 OpenBabel10152418203D

 35 38  0  0  0  0  0  0  0  0999 V2000
   -0.4530   -5.9140  -24.7050 C   0  0  0  0  0  2  0  0  0  0  0  0
   -1.5070  -11.0960  -21.6250 C   0  0  0  0  0  0  0  0  0  0  0  0
   -1.2090  -12.0340  -22.6260 C   0  0  0  0  0  3  0  0  0  0  0  0
   -0.8340  -11.5900  -23.8820 C   0  0  0  0  0  3  0  0  0  0  0  0
   -0.7480  -10.2210  -24.1180 C   0  0  0  0  0  3  0  0  0  0  0  0
   -1.0330   -9.2690  -23.0990 C   0  0  0  0  0  0  0  0  0  0  0  0
   -0.9300   -7.8710  -23.2660 C   0  0  0  0  0  0  0  0  0  0  0  0
   -0.4910   -7.3450  -24.4770 N   0  0  0  0  0  0  0  0  0  0  0  0
   -1.2620   -7.0120  -22.2920 N   0  0  0  0  0  0  0  0  0  0  0  0
   -1.6420   -7.5400  -21.1270 C   0  0  0  0  0  3  0  0  0  0  0  0
   -1.7160   -8.8420  -20.8420 N   0  0  0  0  0  0  0  0  0  0  0  0
   -1.4370   -9.7120  -21.8280 C   0  0  0  0  0  0  0  0  0  0  0  0
    0.2270   -7.8770  -24.9500 H   0  0  0  0  0  0  0  0  0  0  0  0
   -0.9080  -12.0280  -19.4930 N   0  0  0  0  0  0  0  0  0  0  0  0
   -1.9260  -11.6270  -20.3150 C   0  0  0  0  0  0  0  0  0  0  0  0
   -3.1020  -11.7610  -20.0100 O   0  0  0  0  0  0  0  0  0  0  0  0
   -1.1600  -12.4000  -18.5870 H   0  0  0  0  0  0  0  0  0  0  0  0
    0.0680  -11.9080  -19.7200 H   0  0  0  0  0  0  0  0  0  0  0  0
   -0.1200   -5.6880  -26.1630 C   0  0  0  0  0  0  0  0  0  0  0  0
   -1.1180   -5.3980  -27.0970 C   0  0  0  0  0  3  0  0  0  0  0  0
   -0.7990   -5.3170  -28.4500 C   0  0  0  0  0  3  0  0  0  0  0  0
    0.5150   -5.5270  -28.8850 C   0  0  0  0  0  3  0  0  0  0  0  0
    1.5330   -5.7890  -27.9700 C   0  0  0  0  0  0  0  0  0  0  0  0
    1.1990   -5.8810  -26.6120 C   0  0  0  0  0  3  0  0  0  0  0  0
    2.8760   -6.0500  -28.2970 N   0  0  0  0  0  0  0  0  0  0  0  0
    3.7770   -7.0100  -27.9090 C   0  0  0  0  0  0  0  0  0  0  0  0
    4.9740   -6.8580  -28.1570 O   0  0  0  0  0  0  0  0  0  0  0  0
    3.3250   -5.3700  -28.9010 H   0  0  0  0  0  0  0  0  0  0  0  0
    3.3650   -8.2590  -27.2490 C   0  0  0  0  0  0  0  0  0  0  0  0
    2.8020   -8.1850  -25.9700 C   0  0  0  0  0  3  0  0  0  0  0  0
    2.4330   -9.3580  -25.3080 C   0  0  0  0  0  3  0  0  0  0  0  0
    2.6500  -10.5940  -25.9180 C   0  0  0  0  0  0  0  0  0  0  0  0
    2.1910  -12.0380  -25.1030 Cl  0  0  0  0  0  0  0  0  0  0  0  0
    3.2410  -10.6710  -27.1820 C   0  0  0  0  0  3  0  0  0  0  0  0
    3.6110   -9.5000  -27.8470 C   0  0  0  0  0  3  0  0  0  0  0  0
  1  8  1  0  0  0  0
  2 15  1  0  0  0  0
  3  2  2  0  0  0  0
  4  3  1  0  0  0  0
  5  4  2  0  0  0  0
  5  6  1  0  0  0  0
  6 12  1  0  0  0  0
  7  6  2  0  0  0  0
  7  9  1  0  0  0  0
  8  7  1  0  0  0  0
  9 10  2  0  0  0  0
 10 11  1  0  0  0  0
 12  2  1  0  0  0  0
 12 11  2  0  0  0  0
 13  8  1  0  0  0  0
 14 17  1  0  0  0  0
 15 16  2  0  0  0  0
 15 14  1  0  0  0  0
 18 14  1  0  0  0  0
 19  1  1  0  0  0  0
 20 19  2  0  0  0  0
 21 20  1  0  0  0  0
 22 21  2  0  0  0  0
 22 23  1  0  0  0  0
 23 24  2  0  0  0  0
 24 19  1  0  0  0  0
 25 23  1  0  0  0  0
 25 26  1  0  0  0  0
 26 29  1  0  0  0  0
 27 26  2  0  0  0  0
 28 25  1  0  0  0  0
 29 30  1  0  0  0  0
 30 31  2  0  0  0  0
 32 31  1  0  0  0  0
 32 33  1  0  0  0  0
 34 32  2  0  0  0  0
 35 29  2  0  0  0  0
 35 34  1  0  0  0  0
M  END
>  <minimizedAffinity>
-9.01449966

$$$$

 OpenBabel10152418203D

 35 38  0  0  0  0  0  0  0  0999 V2000
    0.3120   -5.8600  -24.4800 C   0  0  0  0  0  2  0  0  0  0  0  0
    3.7950   -7.9920  -29.0390 C   0  0  0  0  0  0  0  0  0  0  0  0
    4.5520   -8.9430  -28.3370 C   0  0  0  0  0  3  0  0  0  0  0  0
    4.3510   -9.1010  -26.9770 C   0  0  0  0  0  3  0  0  0  0  0  0
    3.3920   -8.3190  -26.3400 C   0  0  0  0  0  3  0  0  0  0  0  0
    2.6110   -7.3670  -27.0530 C   0  0  0  0  0  0  0  0  0  0  0  0
    1.6000   -6.5720  -26.4710 C   0  0  0  0  0  0  0  0  0  0  0  0
    1.2870   -6.7190  -25.1240 N   0  0  0  0  0  0  0  0  0  0  0  0
    0.9290   -5.6480  -27.1740 N   0  0  0  0  0  0  0  0  0  0  0  0
    1.2180   -5.5520  -28.4730 C   0  0  0  0  0  3  0  0  0  0  0  0
    2.1090   -6.2930  -29.1360 N   0  0  0  0  0  0  0  0  0  0  0  0
    2.8250   -7.1850  -28.4300 C   0  0  0  0  0  0  0  0  0  0  0  0
    1.3350   -7.6630  -24.7650 H   0  0  0  0  0  0  0  0  0  0  0  0
    4.9430   -6.8500  -30.8140 N   0  0  0  0  0  0  0  0  0  0  0  0
    4.0700   -7.8490  -30.4810 C   0  0  0  0  0  0  0  0  0  0  0  0
    3.5060   -8.5310  -31.3230 O   0  0  0  0  0  0  0  0  0  0  0  0
    5.1520   -6.7230  -31.7950 H   0  0  0  0  0  0  0  0  0  0  0  0
    5.4320   -6.2890  -30.1310 H   0  0  0  0  0  0  0  0  0  0  0  0
   -0.7010   -6.7480  -23.7920 C   0  0  0  0  0  0  0  0  0  0  0  0
   -1.0290   -6.5640  -22.4460 C   0  0  0  0  0  3  0  0  0  0  0  0
   -1.8710   -7.4700  -21.8070 C   0  0  0  0  0  3  0  0  0  0  0  0
   -2.3900   -8.5700  -22.5000 C   0  0  0  0  0  3  0  0  0  0  0  0
   -2.1000   -8.7600  -23.8500 C   0  0  0  0  0  0  0  0  0  0  0  0
   -1.2420   -7.8490  -24.4800 C   0  0  0  0  0  3  0  0  0  0  0  0
   -2.5360   -9.8440  -24.6330 N   0  0  0  0  0  0  0  0  0  0  0  0
   -1.8880  -10.7950  -25.3820 C   0  0  0  0  0  0  0  0  0  0  0  0
   -2.5270  -11.4820  -26.1780 O   0  0  0  0  0  0  0  0  0  0  0  0
   -3.5410   -9.9410  -24.7360 H   0  0  0  0  0  0  0  0  0  0  0  0
   -0.4500  -11.0700  -25.2360 C   0  0  0  0  0  0  0  0  0  0  0  0
    0.3220  -11.2290  -26.3910 C   0  0  0  0  0  3  0  0  0  0  0  0
    1.6820  -11.5240  -26.2800 C   0  0  0  0  0  3  0  0  0  0  0  0
    2.2550  -11.6790  -25.0170 C   0  0  0  0  0  0  0  0  0  0  0  0
    3.9320  -12.0390  -24.8810 Cl  0  0  0  0  0  0  0  0  0  0  0  0
    1.4790  -11.5520  -23.8620 C   0  0  0  0  0  3  0  0  0  0  0  0
    0.1180  -11.2560  -23.9700 C   0  0  0  0  0  3  0  0  0  0  0  0
  1 19  1  0  0  0  0
  2 12  2  0  0  0  0
  2  3  1  0  0  0  0
  3  4  2  0  0  0  0
  4  5  1  0  0  0  0
  6  7  1  0  0  0  0
  6  5  2  0  0  0  0
  7  8  1  0  0  0  0
  8 13  1  0  0  0  0
  8  1  1  0  0  0  0
  9  7  2  0  0  0  0
 10  9  1  0  0  0  0
 11 10  2  0  0  0  0
 11 12  1  0  0  0  0
 12  6  1  0  0  0  0
 14 15  1  0  0  0  0
 14 18  1  0  0  0  0
 15  2  1  0  0  0  0
 16 15  2  0  0  0  0
 17 14  1  0  0  0  0
 19 20  1  0  0  0  0
 20 21  2  0  0  0  0
 22 21  1  0  0  0  0
 23 22  2  0  0  0  0
 24 23  1  0  0  0  0
 24 19  2  0  0  0  0
 25 23  1  0  0  0  0
 26 29  1  0  0  0  0
 26 25  1  0  0  0  0
 27 26  2  0  0  0  0
 28 25  1  0  0  0  0
 29 35  1  0  0  0  0
 30 31  1  0  0  0  0
 30 29  2  0  0  0  0
 31 32  2  0  0  0  0
 32 33  1  0  0  0  0
 32 34  1  0  0  0  0
 35 34  2  0  0  0  0
M  END
>  <minimizedAffinity>
-9.00462627

$$$$

 OpenBabel10152418203D

 35 38  0  0  0  0  0  0  0  0999 V2000
    3.4630   -7.5170  -29.6080 C   0  0  0  0  0  2  0  0  0  0  0  0
   -0.3530   -4.6960  -25.7430 C   0  0  0  0  0  0  0  0  0  0  0  0
   -0.4900   -5.6970  -24.7700 C   0  0  0  0  0  3  0  0  0  0  0  0
    0.1670   -6.9040  -24.9390 C   0  0  0  0  0  3  0  0  0  0  0  0
    0.9590   -7.0890  -26.0670 C   0  0  0  0  0  3  0  0  0  0  0  0
    1.1140   -6.0690  -27.0470 C   0  0  0  0  0  0  0  0  0  0  0  0
    1.9310   -6.1840  -28.1930 C   0  0  0  0  0  0  0  0  0  0  0  0
    2.6800   -7.3370  -28.4010 N   0  0  0  0  0  0  0  0  0  0  0  0
    2.0010   -5.2140  -29.1170 N   0  0  0  0  0  0  0  0  0  0  0  0
    1.3050   -4.1020  -28.8750 C   0  0  0  0  0  3  0  0  0  0  0  0
    0.5520   -3.8630  -27.8000 N   0  0  0  0  0  0  0  0  0  0  0  0
    0.4320   -4.8490  -26.8940 C   0  0  0  0  0  0  0  0  0  0  0  0
    3.0630   -7.7660  -27.5690 H   0  0  0  0  0  0  0  0  0  0  0  0
   -1.3520   -2.7070  -26.6490 N   0  0  0  0  0  0  0  0  0  0  0  0
   -1.0950   -3.4410  -25.5230 C   0  0  0  0  0  0  0  0  0  0  0  0
   -1.4010   -3.0510  -24.4060 O   0  0  0  0  0  0  0  0  0  0  0  0
   -1.8570   -1.8390  -26.5330 H   0  0  0  0  0  0  0  0  0  0  0  0
   -1.1230   -3.0220  -27.5800 H   0  0  0  0  0  0  0  0  0  0  0  0
    3.8610   -8.9740  -29.6860 C   0  0  0  0  0  0  0  0  0  0  0  0
    3.7660   -9.6880  -30.8840 C   0  0  0  0  0  3  0  0  0  0  0  0
    4.0230  -11.0560  -30.8990 C   0  0  0  0  0  3  0  0  0  0  0  0
    4.3710  -11.7270  -29.7210 C   0  0  0  0  0  3  0  0  0  0  0  0
    4.4990  -11.0330  -28.5190 C   0  0  0  0  0  0  0  0  0  0  0  0
    4.2270   -9.6580  -28.5130 C   0  0  0  0  0  3  0  0  0  0  0  0
    4.8080  -11.6090  -27.2730 N   0  0  0  0  0  0  0  0  0  0  0  0
    4.1400  -11.6970  -26.0770 C   0  0  0  0  0  0  0  0  0  0  0  0
    4.7490  -12.0390  -25.0630 O   0  0  0  0  0  0  0  0  0  0  0  0
    5.7390  -12.0020  -27.1850 H   0  0  0  0  0  0  0  0  0  0  0  0
    2.6940  -11.4510  -25.9600 C   0  0  0  0  0  0  0  0  0  0  0  0
    2.2300  -10.6870  -24.8840 C   0  0  0  0  0  3  0  0  0  0  0  0
    0.8600  -10.4660  -24.7310 C   0  0  0  0  0  3  0  0  0  0  0  0
   -0.0360  -11.0270  -25.6420 C   0  0  0  0  0  0  0  0  0  0  0  0
   -1.7240  -10.7510  -25.4550 Cl  0  0  0  0  0  0  0  0  0  0  0  0
    0.4230  -11.8170  -26.6990 C   0  0  0  0  0  3  0  0  0  0  0  0
    1.7930  -12.0390  -26.8550 C   0  0  0  0  0  3  0  0  0  0  0  0
  1  8  1  0  0  0  0
  2 15  1  0  0  0  0
  2  3  1  0  0  0  0
  4  3  2  0  0  0  0
  5  4  1  0  0  0  0
  6 12  1  0  0  0  0
  6  5  2  0  0  0  0
  7  6  1  0  0  0  0
  8  7  1  0  0  0  0
  8 13  1  0  0  0  0
  9 10  1  0  0  0  0
  9  7  2  0  0  0  0
 10 11  2  0  0  0  0
 11 12  1  0  0  0  0
 12  2  2  0  0  0  0
 14 17  1  0  0  0  0
 14 15  1  0  0  0  0
 15 16  2  0  0  0  0
 18 14  1  0  0  0  0
 19  1  1  0  0  0  0
 19 24  1  0  0  0  0
 20 19  2  0  0  0  0
 21 20  1  0  0  0  0
 21 22  2  0  0  0  0
 22 23  1  0  0  0  0
 23 24  2  0  0  0  0
 23 25  1  0  0  0  0
 25 28  1  0  0  0  0
 25 26  1  0  0  0  0
 26 29  1  0  0  0  0
 26 27  2  0  0  0  0
 29 30  1  0  0  0  0
 30 31  2  0  0  0  0
 32 33  1  0  0  0  0
 32 31  1  0  0  0  0
 34 32  2  0  0  0  0
 35 34  1  0  0  0  0
 35 29  2  0  0  0  0
M  END
>  <minimizedAffinity>
-8.13406372

$$$$

 OpenBabel10152418203D

 35 38  0  0  0  0  0  0  0  0999 V2000
    4.3500   -9.5950  -26.7360 C   0  0  0  0  0  2  0  0  0  0  0  0
   -0.7370   -9.9130  -23.3480 C   0  0  0  0  0  0  0  0  0  0  0  0
   -1.0780  -11.2580  -23.5560 C   0  0  0  0  0  3  0  0  0  0  0  0
   -0.2910  -12.0390  -24.3840 C   0  0  0  0  0  3  0  0  0  0  0  0
    0.8300  -11.4720  -24.9820 C   0  0  0  0  0  3  0  0  0  0  0  0
    1.1890  -10.1130  -24.7590 C   0  0  0  0  0  0  0  0  0  0  0  0
    2.3320   -9.4920  -25.3070 C   0  0  0  0  0  0  0  0  0  0  0  0
    3.2140  -10.2260  -26.0930 N   0  0  0  0  0  0  0  0  0  0  0  0
    2.5970   -8.1910  -25.1120 N   0  0  0  0  0  0  0  0  0  0  0  0
    1.7590   -7.5180  -24.3220 C   0  0  0  0  0  3  0  0  0  0  0  0
    0.6870   -8.0190  -23.7060 N   0  0  0  0  0  0  0  0  0  0  0  0
    0.3810   -9.3070  -23.9370 C   0  0  0  0  0  0  0  0  0  0  0  0
    3.3550  -11.1870  -25.8120 H   0  0  0  0  0  0  0  0  0  0  0  0
   -1.0140   -8.5100  -21.4180 N   0  0  0  0  0  0  0  0  0  0  0  0
   -1.6260   -9.1230  -22.4770 C   0  0  0  0  0  0  0  0  0  0  0  0
   -2.8350   -9.0740  -22.6500 O   0  0  0  0  0  0  0  0  0  0  0  0
   -1.5950   -7.9620  -20.7980 H   0  0  0  0  0  0  0  0  0  0  0  0
   -0.0150   -8.5230  -21.2700 H   0  0  0  0  0  0  0  0  0  0  0  0
    3.8600   -8.9580  -28.0180 C   0  0  0  0  0  0  0  0  0  0  0  0
    3.8890   -9.6540  -29.2290 C   0  0  0  0  0  3  0  0  0  0  0  0
    3.5470   -9.0020  -30.4120 C   0  0  0  0  0  3  0  0  0  0  0  0
    3.1790   -7.6520  -30.3990 C   0  0  0  0  0  3  0  0  0  0  0  0
    3.1150   -6.9440  -29.1990 C   0  0  0  0  0  0  0  0  0  0  0  0
    3.4730   -7.6060  -28.0170 C   0  0  0  0  0  3  0  0  0  0  0  0
    2.7930   -5.5800  -29.0730 N   0  0  0  0  0  0  0  0  0  0  0  0
    1.6950   -4.9050  -28.6020 C   0  0  0  0  0  0  0  0  0  0  0  0
    1.5710   -3.7030  -28.8410 O   0  0  0  0  0  0  0  0  0  0  0  0
    3.4710   -4.9280  -29.4530 H   0  0  0  0  0  0  0  0  0  0  0  0
    0.6700   -5.5490  -27.7670 C   0  0  0  0  0  0  0  0  0  0  0  0
    0.0360   -4.7880  -26.7790 C   0  0  0  0  0  3  0  0  0  0  0  0
   -0.9160   -5.3840  -25.9500 C   0  0  0  0  0  3  0  0  0  0  0  0
   -1.2120   -6.7390  -26.1000 C   0  0  0  0  0  0  0  0  0  0  0  0
   -2.3890   -7.4720  -25.0800 Cl  0  0  0  0  0  0  0  0  0  0  0  0
   -0.5570   -7.5090  -27.0650 C   0  0  0  0  0  3  0  0  0  0  0  0
    0.3960   -6.9160  -27.8960 C   0  0  0  0  0  3  0  0  0  0  0  0
  1  8  1  0  0  0  0
  2 15  1  0  0  0  0
  3  2  1  0  0  0  0
  4  3  2  0  0  0  0
  5  6  2  0  0  0  0
  5  4  1  0  0  0  0
  6 12  1  0  0  0  0
  7  9  2  0  0  0  0
  7  6  1  0  0  0  0
  8 13  1  0  0  0  0
  8  7  1  0  0  0  0
  9 10  1  0  0  0  0
 10 11  2  0  0  0  0
 12 11  1  0  0  0  0
 12  2  2  0  0  0  0
 14 18  1  0  0  0  0
 14 17  1  0  0  0  0
 15 14  1  0  0  0  0
 16 15  2  0  0  0  0
 19 24  1  0  0  0  0
 19  1  1  0  0  0  0
 20 19  2  0  0  0  0
 21 22  2  0  0  0  0
 21 20  1  0  0  0  0
 22 23  1  0  0  0  0
 23 25  1  0  0  0  0
 23 24  2  0  0  0  0
 25 26  1  0  0  0  0
 26 29  1  0  0  0  0
 27 26  2  0  0  0  0
 28 25  1  0  0  0  0
 29 30  1  0  0  0  0
 30 31  2  0  0  0  0
 32 31  1  0  0  0  0
 32 33  1  0  0  0  0
 34 32  2  0  0  0  0
 35 29  2  0  0  0  0
 35 34  1  0  0  0  0
M  END
>  <minimizedAffinity>
-7.56250286

$$$$

 OpenBabel10152418203D

 35 38  0  0  0  0  0  0  0  0999 V2000
    2.2570  -10.4150  -26.8170 C   0  0  0  0  0  2  0  0  0  0  0  0
   -1.9110  -10.1600  -22.3430 C   0  0  0  0  0  0  0  0  0  0  0  0
   -2.6950   -9.0920  -22.8070 C   0  0  0  0  0  3  0  0  0  0  0  0
   -2.3430   -8.4520  -23.9830 C   0  0  0  0  0  3  0  0  0  0  0  0
   -1.2240   -8.8930  -24.6840 C   0  0  0  0  0  3  0  0  0  0  0  0
   -0.4380   -9.9870  -24.2240 C   0  0  0  0  0  0  0  0  0  0  0  0
    0.6840  -10.5020  -24.9070 C   0  0  0  0  0  0  0  0  0  0  0  0
    1.0620   -9.9620  -26.1320 N   0  0  0  0  0  0  0  0  0  0  0  0
    1.4260  -11.5010  -24.4050 N   0  0  0  0  0  0  0  0  0  0  0  0
    1.0200  -12.0300  -23.2500 C   0  0  0  0  0  3  0  0  0  0  0  0
   -0.0570  -11.6620  -22.5520 N   0  0  0  0  0  0  0  0  0  0  0  0
   -0.7770  -10.6280  -23.0190 C   0  0  0  0  0  0  0  0  0  0  0  0
    0.3050   -9.6680  -26.7340 H   0  0  0  0  0  0  0  0  0  0  0  0
   -2.0160  -10.0750  -19.9440 N   0  0  0  0  0  0  0  0  0  0  0  0
   -2.3200  -10.7870  -21.0720 C   0  0  0  0  0  0  0  0  0  0  0  0
   -2.8320  -11.8950  -21.0260 O   0  0  0  0  0  0  0  0  0  0  0  0
   -2.2800  -10.4770  -19.0550 H   0  0  0  0  0  0  0  0  0  0  0  0
   -1.6100   -9.1500  -19.9640 H   0  0  0  0  0  0  0  0  0  0  0  0
    2.9800   -9.1940  -27.3410 C   0  0  0  0  0  0  0  0  0  0  0  0
    4.3570   -9.0350  -27.1640 C   0  0  0  0  0  3  0  0  0  0  0  0
    4.9730   -7.8470  -27.5480 C   0  0  0  0  0  3  0  0  0  0  0  0
    4.2240   -6.8050  -28.1070 C   0  0  0  0  0  3  0  0  0  0  0  0
    2.8540   -6.9500  -28.3200 C   0  0  0  0  0  0  0  0  0  0  0  0
    2.2420   -8.1450  -27.9190 C   0  0  0  0  0  3  0  0  0  0  0  0
    2.0000   -5.9610  -28.8400 N   0  0  0  0  0  0  0  0  0  0  0  0
    0.8730   -5.3360  -28.3670 C   0  0  0  0  0  0  0  0  0  0  0  0
    0.1700   -4.6830  -29.1380 O   0  0  0  0  0  0  0  0  0  0  0  0
    2.1950   -5.6610  -29.7900 H   0  0  0  0  0  0  0  0  0  0  0  0
    0.4890   -5.3690  -26.9470 C   0  0  0  0  0  0  0  0  0  0  0  0
    1.0240   -6.3730  -26.1330 C   0  0  0  0  0  3  0  0  0  0  0  0
    0.6500   -6.4470  -24.7900 C   0  0  0  0  0  3  0  0  0  0  0  0
   -0.2690   -5.5310  -24.2760 C   0  0  0  0  0  0  0  0  0  0  0  0
   -0.7260   -5.6200  -22.6200 Cl  0  0  0  0  0  0  0  0  0  0  0  0
   -0.8280   -4.5470  -25.0960 C   0  0  0  0  0  3  0  0  0  0  0  0
   -0.4560   -4.4700  -26.4400 C   0  0  0  0  0  3  0  0  0  0  0  0
  1  8  1  0  0  0  0
  2 15  1  0  0  0  0
  3  2  1  0  0  0  0
  4  3  2  0  0  0  0
  5  6  2  0  0  0  0
  5  4  1  0  0  0  0
  6 12  1  0  0  0  0
  7  9  2  0  0  0  0
  7  6  1  0  0  0  0
  8  7  1  0  0  0  0
  9 10  1  0  0  0  0
 10 11  2  0  0  0  0
 12 11  1  0  0  0  0
 12  2  2  0  0  0  0
 13  8  1  0  0  0  0
 14 17  1  0  0  0  0
 15 16  2  0  0  0  0
 15 14  1  0  0  0  0
 18 14  1  0  0  0  0
 19 20  1  0  0  0  0
 19  1  1  0  0  0  0
 21 20  2  0  0  0  0
 22 21  1  0  0  0  0
 23 22  2  0  0  0  0
 23 24  1  0  0  0  0
 24 19  2  0  0  0  0
 25 26  1  0  0  0  0
 25 23  1  0  0  0  0
 26 29  1  0  0  0  0
 27 26  2  0  0  0  0
 28 25  1  0  0  0  0
 29 35  2  0  0  0  0
 29 30  1  0  0  0  0
 30 31  2  0  0  0  0
 31 32  1  0  0  0  0
 32 33  1  0  0  0  0
 34 32  2  0  0  0  0
 35 34  1  0  0  0  0
M  END
>  <minimizedAffinity>
-7.4254365

$$$$

 OpenBabel10152418203D

 35 38  0  0  0  0  0  0  0  0999 V2000
    0.9160  -12.0390  -26.7930 C   0  0  0  0  0  2  0  0  0  0  0  0
   -1.9660   -9.4040  -22.0800 C   0  0  0  0  0  0  0  0  0  0  0  0
   -1.8540  -10.4290  -21.1290 C   0  0  0  0  0  3  0  0  0  0  0  0
   -1.2290  -11.6140  -21.4760 C   0  0  0  0  0  3  0  0  0  0  0  0
   -0.7140  -11.7540  -22.7610 C   0  0  0  0  0  3  0  0  0  0  0  0
   -0.8100  -10.7090  -23.7230 C   0  0  0  0  0  0  0  0  0  0  0  0
   -0.2770  -10.7780  -25.0280 C   0  0  0  0  0  0  0  0  0  0  0  0
    0.4280  -11.9050  -25.4330 N   0  0  0  0  0  0  0  0  0  0  0  0
   -0.4420   -9.7870  -25.9170 N   0  0  0  0  0  0  0  0  0  0  0  0
   -1.0870   -8.6990  -25.4920 C   0  0  0  0  0  3  0  0  0  0  0  0
   -1.5770   -8.5040  -24.2660 N   0  0  0  0  0  0  0  0  0  0  0  0
   -1.4640   -9.5120  -23.3840 C   0  0  0  0  0  0  0  0  0  0  0  0
    1.0020  -12.3410  -24.7240 H   0  0  0  0  0  0  0  0  0  0  0  0
   -3.7370   -7.8190  -22.4330 N   0  0  0  0  0  0  0  0  0  0  0  0
   -2.6650   -8.1750  -21.6610 C   0  0  0  0  0  0  0  0  0  0  0  0
   -2.2730   -7.4870  -20.7310 O   0  0  0  0  0  0  0  0  0  0  0  0
   -4.2370   -6.9790  -22.1760 H   0  0  0  0  0  0  0  0  0  0  0  0
   -4.0850   -8.3840  -23.1940 H   0  0  0  0  0  0  0  0  0  0  0  0
    2.3670  -11.6110  -26.8060 C   0  0  0  0  0  0  0  0  0  0  0  0
    3.2560  -12.0390  -25.8160 C   0  0  0  0  0  3  0  0  0  0  0  0
    4.5530  -11.5320  -25.7840 C   0  0  0  0  0  3  0  0  0  0  0  0
    4.9750  -10.5940  -26.7330 C   0  0  0  0  0  3  0  0  0  0  0  0
    4.1150  -10.1730  -27.7470 C   0  0  0  0  0  0  0  0  0  0  0  0
    2.8080  -10.6800  -27.7630 C   0  0  0  0  0  3  0  0  0  0  0  0
    4.4190   -9.2130  -28.7280 N   0  0  0  0  0  0  0  0  0  0  0  0
    3.8140   -8.0500  -29.1370 C   0  0  0  0  0  0  0  0  0  0  0  0
    4.1570   -7.5260  -30.1980 O   0  0  0  0  0  0  0  0  0  0  0  0
    5.2180   -9.4190  -29.3180 H   0  0  0  0  0  0  0  0  0  0  0  0
    2.7980   -7.3610  -28.3270 C   0  0  0  0  0  0  0  0  0  0  0  0
    2.0910   -6.2990  -28.9010 C   0  0  0  0  0  3  0  0  0  0  0  0
    1.1450   -5.6080  -28.1430 C   0  0  0  0  0  3  0  0  0  0  0  0
    0.9280   -5.9670  -26.8120 C   0  0  0  0  0  0  0  0  0  0  0  0
   -0.2410   -5.1160  -25.8800 Cl  0  0  0  0  0  0  0  0  0  0  0  0
    1.6560   -7.0060  -26.2270 C   0  0  0  0  0  3  0  0  0  0  0  0
    2.6030   -7.7010  -26.9830 C   0  0  0  0  0  3  0  0  0  0  0  0
  1  8  1  0  0  0  0
  2 15  1  0  0  0  0
  2  3  1  0  0  0  0
  4  3  2  0  0  0  0
  5  4  1  0  0  0  0
  6 12  1  0  0  0  0
  6  5  2  0  0  0  0
  7  6  1  0  0  0  0
  8  7  1  0  0  0  0
  8 13  1  0  0  0  0
  9 10  1  0  0  0  0
  9  7  2  0  0  0  0
 10 11  2  0  0  0  0
 11 12  1  0  0  0  0
 12  2  2  0  0  0  0
 14 17  1  0  0  0  0
 14 15  1  0  0  0  0
 15 16  2  0  0  0  0
 18 14  1  0  0  0  0
 19  1  1  0  0  0  0
 19 20  1  0  0  0  0
 20 21  2  0  0  0  0
 22 21  1  0  0  0  0
 23 22  2  0  0  0  0
 24 23  1  0  0  0  0
 24 19  2  0  0  0  0
 25 23  1  0  0  0  0
 26 25  1  0  0  0  0
 26 29  1  0  0  0  0
 27 26  2  0  0  0  0
 28 25  1  0  0  0  0
 29 35  1  0  0  0  0
 30 29  2  0  0  0  0
 30 31  1  0  0  0  0
 31 32  2  0  0  0  0
 32 34  1  0  0  0  0
 32 33  1  0  0  0  0
 35 34  2  0  0  0  0
M  END
>  <minimizedAffinity>
-6.80010462

$$$$
