
 OpenBabel10152418203D

 35 38  0  0  0  0  0  0  0  0999 V2000
    2.4460  -11.3640  -24.3250 C   0  0  0  0  0  2  0  0  0  0  0  0
    4.5580   -9.2090  -29.6500 C   0  0  0  0  0  0  0  0  0  0  0  0
    4.9540  -10.4120  -30.2540 C   0  0  0  0  0  3  0  0  0  0  0  0
    4.8050  -11.6020  -29.5620 C   0  0  0  0  0  3  0  0  0  0  0  0
    4.2520  -11.5750  -28.2850 C   0  0  0  0  0  3  0  0  0  0  0  0
    3.8330  -10.3590  -27.6770 C   0  0  0  0  0  0  0  0  0  0  0  0
    3.2340  -10.2720  -26.4030 C   0  0  0  0  0  0  0  0  0  0  0  0
    2.9840  -11.4270  -25.6710 N   0  0  0  0  0  0  0  0  0  0  0  0
    2.9070   -9.0940  -25.8490 N   0  0  0  0  0  0  0  0  0  0  0  0
    3.1190   -8.0030  -26.5870 C   0  0  0  0  0  3  0  0  0  0  0  0
    3.6210   -7.9760  -27.8230 N   0  0  0  0  0  0  0  0  0  0  0  0
    4.0020   -9.1440  -28.3660 C   0  0  0  0  0  0  0  0  0  0  0  0
    2.7030  -12.2350  -26.2100 H   0  0  0  0  0  0  0  0  0  0  0  0
    4.6290   -6.8090  -29.7170 N   0  0  0  0  0  0  0  0  0  0  0  0
    4.7630   -7.9720  -30.4250 C   0  0  0  0  0  0  0  0  0  0  0  0
    4.9720   -7.9820  -31.6290 O   0  0  0  0  0  0  0  0  0  0  0  0
    4.7610   -5.9400  -30.2180 H   0  0  0  0  0  0  0  0  0  0  0  0
    4.4750   -6.7810  -28.7190 H   0  0  0  0  0  0  0  0  0  0  0  0
    0.9490  -11.1740  -24.4360 C   0  0  0  0  0  0  0  0  0  0  0  0
    0.1640  -12.0390  -25.2030 C   0  0  0  0  0  3  0  0  0  0  0  0
   -1.1890  -11.7690  -25.3860 C   0  0  0  0  0  3  0  0  0  0  0  0
   -1.7720  -10.6330  -24.8110 C   0  0  0  0  0  3  0  0  0  0  0  0
   -1.0170   -9.7700  -24.0190 C   0  0  0  0  0  0  0  0  0  0  0  0
    0.3470  -10.0450  -23.8510 C   0  0  0  0  0  3  0  0  0  0  0  0
   -1.4880   -8.5860  -23.4240 N   0  0  0  0  0  0  0  0  0  0  0  0
   -1.2960   -7.2520  -23.6840 C   0  0  0  0  0  0  0  0  0  0  0  0
   -1.6280   -6.4140  -22.8450 O   0  0  0  0  0  0  0  0  0  0  0  0
   -2.0470   -8.7040  -22.5850 H   0  0  0  0  0  0  0  0  0  0  0  0
   -0.7520   -6.7670  -24.9620 C   0  0  0  0  0  0  0  0  0  0  0  0
   -0.4170   -5.4140  -25.0760 C   0  0  0  0  0  3  0  0  0  0  0  0
    0.0700   -4.9210  -26.2880 C   0  0  0  0  0  3  0  0  0  0  0  0
    0.1970   -5.7780  -27.3820 C   0  0  0  0  0  0  0  0  0  0  0  0
    0.8010   -5.1710  -28.8740 Cl  0  0  0  0  0  0  0  0  0  0  0  0
   -0.1660   -7.1230  -27.2790 C   0  0  0  0  0  3  0  0  0  0  0  0
   -0.6530   -7.6200  -26.0670 C   0  0  0  0  0  3  0  0  0  0  0  0
  2 12  1  0  0  0  0
  3  2  2  0  0  0  0
  3  4  1  0  0  0  0
  4  5  2  0  0  0  0
  5  6  1  0  0  0  0
  6  7  1  0  0  0  0
  7  9  2  0  0  0  0
  7  8  1  0  0  0  0
  8  1  1  0  0  0  0
 10  9  1  0  0  0  0
 11 10  2  0  0  0  0
 12 11  1  0  0  0  0
 12  6  2  0  0  0  0
 13  8  1  0  0  0  0
 14 18  1  0  0  0  0
 15 14  1  0  0  0  0
 15  2  1  0  0  0  0
 16 15  2  0  0  0  0
 17 14  1  0  0  0  0
 19  1  1  0  0  0  0
 19 24  1  0  0  0  0
 20 19  2  0  0  0  0
 21 20  1  0  0  0  0
 21 22  2  0  0  0  0
 22 23  1  0  0  0  0
 23 24  2  0  0  0  0
 23 25  1  0  0  0  0
 25 28  1  0  0  0  0
 26 25  1  0  0  0  0
 26 27  2  0  0  0  0
 29 26  1  0  0  0  0
 30 29  1  0  0  0  0
 31 30  2  0  0  0  0
 32 34  2  0  0  0  0
 32 31  1  0  0  0  0
 33 32  1  0  0  0  0
 34 35  1  0  0  0  0
 35 29  2  0  0  0  0
M  END
>  <minimizedAffinity>
-9.32442093

$$$$
