
 OpenBabel10152418203D

 35 38  0  0  0  0  0  0  0  0999 V2000
    3.4630   -7.5170  -29.6080 C   0  0  0  0  0  2  0  0  0  0  0  0
   -0.3530   -4.6960  -25.7430 C   0  0  0  0  0  0  0  0  0  0  0  0
   -0.4900   -5.6970  -24.7700 C   0  0  0  0  0  3  0  0  0  0  0  0
    0.1670   -6.9040  -24.9390 C   0  0  0  0  0  3  0  0  0  0  0  0
    0.9590   -7.0890  -26.0670 C   0  0  0  0  0  3  0  0  0  0  0  0
    1.1140   -6.0690  -27.0470 C   0  0  0  0  0  0  0  0  0  0  0  0
    1.9310   -6.1840  -28.1930 C   0  0  0  0  0  0  0  0  0  0  0  0
    2.6800   -7.3370  -28.4010 N   0  0  0  0  0  0  0  0  0  0  0  0
    2.0010   -5.2140  -29.1170 N   0  0  0  0  0  0  0  0  0  0  0  0
    1.3050   -4.1020  -28.8750 C   0  0  0  0  0  3  0  0  0  0  0  0
    0.5520   -3.8630  -27.8000 N   0  0  0  0  0  0  0  0  0  0  0  0
    0.4320   -4.8490  -26.8940 C   0  0  0  0  0  0  0  0  0  0  0  0
    3.0630   -7.7660  -27.5690 H   0  0  0  0  0  0  0  0  0  0  0  0
   -1.3520   -2.7070  -26.6490 N   0  0  0  0  0  0  0  0  0  0  0  0
   -1.0950   -3.4410  -25.5230 C   0  0  0  0  0  0  0  0  0  0  0  0
   -1.4010   -3.0510  -24.4060 O   0  0  0  0  0  0  0  0  0  0  0  0
   -1.8570   -1.8390  -26.5330 H   0  0  0  0  0  0  0  0  0  0  0  0
   -1.1230   -3.0220  -27.5800 H   0  0  0  0  0  0  0  0  0  0  0  0
    3.8610   -8.9740  -29.6860 C   0  0  0  0  0  0  0  0  0  0  0  0
    3.7660   -9.6880  -30.8840 C   0  0  0  0  0  3  0  0  0  0  0  0
    4.0230  -11.0560  -30.8990 C   0  0  0  0  0  3  0  0  0  0  0  0
    4.3710  -11.7270  -29.7210 C   0  0  0  0  0  3  0  0  0  0  0  0
    4.4990  -11.0330  -28.5190 C   0  0  0  0  0  0  0  0  0  0  0  0
    4.2270   -9.6580  -28.5130 C   0  0  0  0  0  3  0  0  0  0  0  0
    4.8080  -11.6090  -27.2730 N   0  0  0  0  0  0  0  0  0  0  0  0
    4.1400  -11.6970  -26.0770 C   0  0  0  0  0  0  0  0  0  0  0  0
    4.7490  -12.0390  -25.0630 O   0  0  0  0  0  0  0  0  0  0  0  0
    5.7390  -12.0020  -27.1850 H   0  0  0  0  0  0  0  0  0  0  0  0
    2.6940  -11.4510  -25.9600 C   0  0  0  0  0  0  0  0  0  0  0  0
    2.2300  -10.6870  -24.8840 C   0  0  0  0  0  3  0  0  0  0  0  0
    0.8600  -10.4660  -24.7310 C   0  0  0  0  0  3  0  0  0  0  0  0
   -0.0360  -11.0270  -25.6420 C   0  0  0  0  0  0  0  0  0  0  0  0
   -1.7240  -10.7510  -25.4550 Cl  0  0  0  0  0  0  0  0  0  0  0  0
    0.4230  -11.8170  -26.6990 C   0  0  0  0  0  3  0  0  0  0  0  0
    1.7930  -12.0390  -26.8550 C   0  0  0  0  0  3  0  0  0  0  0  0
  1  8  1  0  0  0  0
  2 15  1  0  0  0  0
  2  3  1  0  0  0  0
  4  3  2  0  0  0  0
  5  4  1  0  0  0  0
  6 12  1  0  0  0  0
  6  5  2  0  0  0  0
  7  6  1  0  0  0  0
  8  7  1  0  0  0  0
  8 13  1  0  0  0  0
  9 10  1  0  0  0  0
  9  7  2  0  0  0  0
 10 11  2  0  0  0  0
 11 12  1  0  0  0  0
 12  2  2  0  0  0  0
 14 17  1  0  0  0  0
 14 15  1  0  0  0  0
 15 16  2  0  0  0  0
 18 14  1  0  0  0  0
 19  1  1  0  0  0  0
 19 24  1  0  0  0  0
 20 19  2  0  0  0  0
 21 20  1  0  0  0  0
 21 22  2  0  0  0  0
 22 23  1  0  0  0  0
 23 24  2  0  0  0  0
 23 25  1  0  0  0  0
 25 28  1  0  0  0  0
 25 26  1  0  0  0  0
 26 29  1  0  0  0  0
 26 27  2  0  0  0  0
 29 30  1  0  0  0  0
 30 31  2  0  0  0  0
 32 33  1  0  0  0  0
 32 31  1  0  0  0  0
 34 32  2  0  0  0  0
 35 34  1  0  0  0  0
 35 29  2  0  0  0  0
M  END
>  <minimizedAffinity>
-8.13406372

$$$$
