
 OpenBabel10152418203D

 35 38  0  0  0  0  0  0  0  0999 V2000
   -0.4530   -5.9140  -24.7050 C   0  0  0  0  0  2  0  0  0  0  0  0
   -1.5070  -11.0960  -21.6250 C   0  0  0  0  0  0  0  0  0  0  0  0
   -1.2090  -12.0340  -22.6260 C   0  0  0  0  0  3  0  0  0  0  0  0
   -0.8340  -11.5900  -23.8820 C   0  0  0  0  0  3  0  0  0  0  0  0
   -0.7480  -10.2210  -24.1180 C   0  0  0  0  0  3  0  0  0  0  0  0
   -1.0330   -9.2690  -23.0990 C   0  0  0  0  0  0  0  0  0  0  0  0
   -0.9300   -7.8710  -23.2660 C   0  0  0  0  0  0  0  0  0  0  0  0
   -0.4910   -7.3450  -24.4770 N   0  0  0  0  0  0  0  0  0  0  0  0
   -1.2620   -7.0120  -22.2920 N   0  0  0  0  0  0  0  0  0  0  0  0
   -1.6420   -7.5400  -21.1270 C   0  0  0  0  0  3  0  0  0  0  0  0
   -1.7160   -8.8420  -20.8420 N   0  0  0  0  0  0  0  0  0  0  0  0
   -1.4370   -9.7120  -21.8280 C   0  0  0  0  0  0  0  0  0  0  0  0
    0.2270   -7.8770  -24.9500 H   0  0  0  0  0  0  0  0  0  0  0  0
   -0.9080  -12.0280  -19.4930 N   0  0  0  0  0  0  0  0  0  0  0  0
   -1.9260  -11.6270  -20.3150 C   0  0  0  0  0  0  0  0  0  0  0  0
   -3.1020  -11.7610  -20.0100 O   0  0  0  0  0  0  0  0  0  0  0  0
   -1.1600  -12.4000  -18.5870 H   0  0  0  0  0  0  0  0  0  0  0  0
    0.0680  -11.9080  -19.7200 H   0  0  0  0  0  0  0  0  0  0  0  0
   -0.1200   -5.6880  -26.1630 C   0  0  0  0  0  0  0  0  0  0  0  0
   -1.1180   -5.3980  -27.0970 C   0  0  0  0  0  3  0  0  0  0  0  0
   -0.7990   -5.3170  -28.4500 C   0  0  0  0  0  3  0  0  0  0  0  0
    0.5150   -5.5270  -28.8850 C   0  0  0  0  0  3  0  0  0  0  0  0
    1.5330   -5.7890  -27.9700 C   0  0  0  0  0  0  0  0  0  0  0  0
    1.1990   -5.8810  -26.6120 C   0  0  0  0  0  3  0  0  0  0  0  0
    2.8760   -6.0500  -28.2970 N   0  0  0  0  0  0  0  0  0  0  0  0
    3.7770   -7.0100  -27.9090 C   0  0  0  0  0  0  0  0  0  0  0  0
    4.9740   -6.8580  -28.1570 O   0  0  0  0  0  0  0  0  0  0  0  0
    3.3250   -5.3700  -28.9010 H   0  0  0  0  0  0  0  0  0  0  0  0
    3.3650   -8.2590  -27.2490 C   0  0  0  0  0  0  0  0  0  0  0  0
    2.8020   -8.1850  -25.9700 C   0  0  0  0  0  3  0  0  0  0  0  0
    2.4330   -9.3580  -25.3080 C   0  0  0  0  0  3  0  0  0  0  0  0
    2.6500  -10.5940  -25.9180 C   0  0  0  0  0  0  0  0  0  0  0  0
    2.1910  -12.0380  -25.1030 Cl  0  0  0  0  0  0  0  0  0  0  0  0
    3.2410  -10.6710  -27.1820 C   0  0  0  0  0  3  0  0  0  0  0  0
    3.6110   -9.5000  -27.8470 C   0  0  0  0  0  3  0  0  0  0  0  0
  1  8  1  0  0  0  0
  2 15  1  0  0  0  0
  3  2  2  0  0  0  0
  4  3  1  0  0  0  0
  5  4  2  0  0  0  0
  5  6  1  0  0  0  0
  6 12  1  0  0  0  0
  7  6  2  0  0  0  0
  7  9  1  0  0  0  0
  8  7  1  0  0  0  0
  9 10  2  0  0  0  0
 10 11  1  0  0  0  0
 12  2  1  0  0  0  0
 12 11  2  0  0  0  0
 13  8  1  0  0  0  0
 14 17  1  0  0  0  0
 15 16  2  0  0  0  0
 15 14  1  0  0  0  0
 18 14  1  0  0  0  0
 19  1  1  0  0  0  0
 20 19  2  0  0  0  0
 21 20  1  0  0  0  0
 22 21  2  0  0  0  0
 22 23  1  0  0  0  0
 23 24  2  0  0  0  0
 24 19  1  0  0  0  0
 25 23  1  0  0  0  0
 25 26  1  0  0  0  0
 26 29  1  0  0  0  0
 27 26  2  0  0  0  0
 28 25  1  0  0  0  0
 29 30  1  0  0  0  0
 30 31  2  0  0  0  0
 32 31  1  0  0  0  0
 32 33  1  0  0  0  0
 34 32  2  0  0  0  0
 35 29  2  0  0  0  0
 35 34  1  0  0  0  0
M  END
>  <minimizedAffinity>
-9.01449966

$$$$
