
 OpenBabel10152418203D

 35 38  0  0  0  0  0  0  0  0999 V2000
    0.9160  -12.0390  -26.7930 C   0  0  0  0  0  2  0  0  0  0  0  0
   -1.9660   -9.4040  -22.0800 C   0  0  0  0  0  0  0  0  0  0  0  0
   -1.8540  -10.4290  -21.1290 C   0  0  0  0  0  3  0  0  0  0  0  0
   -1.2290  -11.6140  -21.4760 C   0  0  0  0  0  3  0  0  0  0  0  0
   -0.7140  -11.7540  -22.7610 C   0  0  0  0  0  3  0  0  0  0  0  0
   -0.8100  -10.7090  -23.7230 C   0  0  0  0  0  0  0  0  0  0  0  0
   -0.2770  -10.7780  -25.0280 C   0  0  0  0  0  0  0  0  0  0  0  0
    0.4280  -11.9050  -25.4330 N   0  0  0  0  0  0  0  0  0  0  0  0
   -0.4420   -9.7870  -25.9170 N   0  0  0  0  0  0  0  0  0  0  0  0
   -1.0870   -8.6990  -25.4920 C   0  0  0  0  0  3  0  0  0  0  0  0
   -1.5770   -8.5040  -24.2660 N   0  0  0  0  0  0  0  0  0  0  0  0
   -1.4640   -9.5120  -23.3840 C   0  0  0  0  0  0  0  0  0  0  0  0
    1.0020  -12.3410  -24.7240 H   0  0  0  0  0  0  0  0  0  0  0  0
   -3.7370   -7.8190  -22.4330 N   0  0  0  0  0  0  0  0  0  0  0  0
   -2.6650   -8.1750  -21.6610 C   0  0  0  0  0  0  0  0  0  0  0  0
   -2.2730   -7.4870  -20.7310 O   0  0  0  0  0  0  0  0  0  0  0  0
   -4.2370   -6.9790  -22.1760 H   0  0  0  0  0  0  0  0  0  0  0  0
   -4.0850   -8.3840  -23.1940 H   0  0  0  0  0  0  0  0  0  0  0  0
    2.3670  -11.6110  -26.8060 C   0  0  0  0  0  0  0  0  0  0  0  0
    3.2560  -12.0390  -25.8160 C   0  0  0  0  0  3  0  0  0  0  0  0
    4.5530  -11.5320  -25.7840 C   0  0  0  0  0  3  0  0  0  0  0  0
    4.9750  -10.5940  -26.7330 C   0  0  0  0  0  3  0  0  0  0  0  0
    4.1150  -10.1730  -27.7470 C   0  0  0  0  0  0  0  0  0  0  0  0
    2.8080  -10.6800  -27.7630 C   0  0  0  0  0  3  0  0  0  0  0  0
    4.4190   -9.2130  -28.7280 N   0  0  0  0  0  0  0  0  0  0  0  0
    3.8140   -8.0500  -29.1370 C   0  0  0  0  0  0  0  0  0  0  0  0
    4.1570   -7.5260  -30.1980 O   0  0  0  0  0  0  0  0  0  0  0  0
    5.2180   -9.4190  -29.3180 H   0  0  0  0  0  0  0  0  0  0  0  0
    2.7980   -7.3610  -28.3270 C   0  0  0  0  0  0  0  0  0  0  0  0
    2.0910   -6.2990  -28.9010 C   0  0  0  0  0  3  0  0  0  0  0  0
    1.1450   -5.6080  -28.1430 C   0  0  0  0  0  3  0  0  0  0  0  0
    0.9280   -5.9670  -26.8120 C   0  0  0  0  0  0  0  0  0  0  0  0
   -0.2410   -5.1160  -25.8800 Cl  0  0  0  0  0  0  0  0  0  0  0  0
    1.6560   -7.0060  -26.2270 C   0  0  0  0  0  3  0  0  0  0  0  0
    2.6030   -7.7010  -26.9830 C   0  0  0  0  0  3  0  0  0  0  0  0
  1  8  1  0  0  0  0
  2 15  1  0  0  0  0
  2  3  1  0  0  0  0
  4  3  2  0  0  0  0
  5  4  1  0  0  0  0
  6 12  1  0  0  0  0
  6  5  2  0  0  0  0
  7  6  1  0  0  0  0
  8  7  1  0  0  0  0
  8 13  1  0  0  0  0
  9 10  1  0  0  0  0
  9  7  2  0  0  0  0
 10 11  2  0  0  0  0
 11 12  1  0  0  0  0
 12  2  2  0  0  0  0
 14 17  1  0  0  0  0
 14 15  1  0  0  0  0
 15 16  2  0  0  0  0
 18 14  1  0  0  0  0
 19  1  1  0  0  0  0
 19 20  1  0  0  0  0
 20 21  2  0  0  0  0
 22 21  1  0  0  0  0
 23 22  2  0  0  0  0
 24 23  1  0  0  0  0
 24 19  2  0  0  0  0
 25 23  1  0  0  0  0
 26 25  1  0  0  0  0
 26 29  1  0  0  0  0
 27 26  2  0  0  0  0
 28 25  1  0  0  0  0
 29 35  1  0  0  0  0
 30 29  2  0  0  0  0
 30 31  1  0  0  0  0
 31 32  2  0  0  0  0
 32 34  1  0  0  0  0
 32 33  1  0  0  0  0
 35 34  2  0  0  0  0
M  END
>  <minimizedAffinity>
-6.80010462

$$$$
