REMARK  Name = 
REMARK  9 active torsions:
REMARK  status: ('A' for Active; 'I' for Inactive)
REMARK    1  A    between atoms: C_1  and  C_2
REMARK    2  A    between atoms: C_2  and  O_3
REMARK    3  A    between atoms: O_3  and  C_4
REMARK    4  A    between atoms: C_4  and  C_6
REMARK    5  A    between atoms: N_10  and  C_11
REMARK    6  A    between atoms: C_15  and  C_16
REMARK    7  A    between atoms: C_16  and  N_17
REMARK    8  A    between atoms: N_17  and  C_18
REMARK    9  A    between atoms: C_23  and  C_24
REMARK                            x       y       z     vdW  Elec       q    Type
REMARK                         _______ _______ _______ _____ _____    ______ ____
ROOT
ATOM      1  C   UNL     1       4.889  -6.579  -2.132  0.00  0.00    +0.033 A 
ATOM      2  C   UNL     1       6.183  -7.059  -2.348  0.00  0.00    +0.023 A 
ATOM      3  C   UNL     1       6.965  -7.466  -1.273  0.00  0.00    +0.002 A 
ATOM      4  C   UNL     1       6.449  -7.411   0.022  0.00  0.00    +0.005 A 
ATOM      5  C   UNL     1       5.131  -7.000   0.275  0.00  0.00    -0.029 A 
ATOM      6  C   UNL     1       4.366  -6.582  -0.823  0.00  0.00    +0.028 A 
ENDROOT
BRANCH   1  11
ATOM      7  C   UNL     1       2.724  -2.565  -2.852  0.00  0.00    +0.117 A 
ATOM      8  C   UNL     1       2.115  -3.265  -3.868  0.00  0.00    +0.135 A 
ATOM      9  N   UNL     1       2.618  -4.532  -4.109  0.00  0.00    -0.232 NA
ATOM     10  C   UNL     1       3.554  -4.825  -3.232  0.00  0.00    +0.163 A 
ATOM     11  N   UNL     1       4.177  -6.026  -3.208  0.00  0.00    -0.294 N 
ATOM     12  S   UNL     1       3.977  -3.510  -2.186  0.00  0.00    -0.046 S 
ATOM     13  H   UNL     1       4.123  -6.595  -4.043  0.00  0.00    +0.154 HD
BRANCH   7  14
ATOM     14  C   UNL     1       2.445  -1.265  -2.306  0.00  0.00    +0.347 C 
ATOM     15  O   UNL     1       3.248  -0.516  -1.774  0.00  0.00    -0.244 OA
BRANCH  14  16
ATOM     16  O   UNL     1       1.104  -1.021  -2.400  0.00  0.00    -0.461 OA
BRANCH  16  18
ATOM     17  C   UNL     1       0.605  -0.057  -0.217  0.00  0.00    +0.048 C 
ATOM     18  C   UNL     1       0.644   0.158  -1.722  0.00  0.00    +0.229 C 
ENDBRANCH  16  18
ENDBRANCH  14  16
ENDBRANCH   7  14
ENDBRANCH   1  11
BRANCH   5  19
ATOM     19  C   UNL     1       4.573  -6.920   1.692  0.00  0.00    +0.138 C 
BRANCH  19  20
ATOM     20  N   UNL     1       4.362  -8.229   2.299  0.00  0.00    -0.324 N 
ATOM     21  H   UNL     1       3.519  -8.726   2.061  0.00  0.00    +0.148 HD
BRANCH  20  22
ATOM     22  C   UNL     1       5.481  -8.940   2.727  0.00  0.00    +0.130 A 
ATOM     23  N   UNL     1       6.481  -8.228   3.277  0.00  0.00    -0.220 NA
ATOM     24  C   UNL     1       7.699  -8.763   3.213  0.00  0.00    +0.223 A 
ATOM     25  N   UNL     1       8.013  -9.873   2.544  0.00  0.00    -0.235 NA
ATOM     26  C   UNL     1       6.994 -10.621   2.075  0.00  0.00    +0.088 A 
ATOM     27  C   UNL     1       7.201 -11.755   1.287  0.00  0.00    +0.063 A 
ATOM     28  C   UNL     1       6.181 -12.655   0.941  0.00  0.00    +0.015 A 
ATOM     29  C   UNL     1       4.880 -12.378   1.322  0.00  0.00    +0.002 A 
ATOM     30  C   UNL     1       4.612 -11.156   1.931  0.00  0.00    +0.013 A 
ATOM     31  C   UNL     1       5.661 -10.259   2.279  0.00  0.00    +0.041 A 
BRANCH  27  32
ATOM     32  C   UNL     1       8.441 -11.841   0.498  0.00  0.00    +0.244 C 
ATOM     33  N   UNL     1       8.376 -11.153  -0.688  0.00  0.00    -0.325 N 
ATOM     34  O   UNL     1       9.396 -12.525   0.825  0.00  0.00    -0.270 OA
ATOM     35  H   UNL     1       9.174 -11.173  -1.307  0.00  0.00    +0.145 HD
ATOM     36  H   UNL     1       7.563 -10.614  -0.960  0.00  0.00    +0.145 HD
ENDBRANCH  27  32
ENDBRANCH  20  22
ENDBRANCH  19  20
ENDBRANCH   5  19
TORSDOF 8
