
 OpenBabel10152419573D

 38 41  0  0  1  0  0  0  0  0999 V2000
    4.1470  -10.0860  -27.1270 C   0  0  0  0  0  0  0  0  0  0  0  0
    3.9810  -10.8220  -28.3010 C   0  0  0  0  0  3  0  0  0  0  0  0
    3.3740  -12.0750  -28.2660 C   0  0  0  0  0  3  0  0  0  0  0  0
    2.8460  -12.5620  -27.0690 C   0  0  0  0  0  3  0  0  0  0  0  0
    2.9300  -11.8060  -25.8880 C   0  0  0  0  0  0  0  0  0  0  0  0
    3.6550  -10.5930  -25.9160 C   0  0  0  0  0  3  0  0  0  0  0  0
    4.0570   -7.6940  -27.8630 C   0  0  0  0  0  0  0  0  0  0  0  0
    4.7160   -6.9170  -28.5490 O   0  0  0  0  0  0  0  0  0  0  0  0
    4.6430   -8.7760  -27.2540 N   0  0  0  0  0  0  0  0  0  0  0  0
    5.6290   -8.6480  -27.0560 H   0  0  0  0  0  0  0  0  0  0  0  0
    0.2390   -6.2470  -26.6080 C   0  0  0  0  0  0  0  0  0  0  0  0
    0.7070   -5.9680  -27.8940 C   0  0  0  0  0  3  0  0  0  0  0  0
    1.9220   -6.5030  -28.3310 C   0  0  0  0  0  3  0  0  0  0  0  0
    2.6710   -7.3250  -27.4810 C   0  0  0  0  0  0  0  0  0  0  0  0
    2.2090   -7.5950  -26.1870 C   0  0  0  0  0  3  0  0  0  0  0  0
    1.0030   -7.0480  -25.7580 C   0  0  0  0  0  0  0  0  0  0  0  0
    0.6410   -7.2450  -24.4810 F   0  0  0  0  0  0  0  0  0  0  0  0
   -0.6780   -4.2670  -25.8100 C   0  0  0  0  0  1  0  0  0  0  0  0
   -0.9130   -5.6100  -26.2330 O   0  0  0  0  0  0  0  0  0  0  0  0
    2.1480  -12.2070  -24.6300 C   0  0  1  0  0  3  0  0  0  0  0  0
    3.0600  -12.9490  -23.6490 C   0  0  0  0  0  1  0  0  0  0  0  0
    1.5600  -11.0520  -23.9530 N   0  0  0  0  0  0  0  0  0  0  0  0
    2.1610  -10.2830  -23.7060 H   0  0  0  0  0  0  0  0  0  0  0  0
    0.2220  -10.8000  -24.2650 C   0  0  0  0  0  0  0  0  0  0  0  0
   -0.0560  -10.5670  -25.5590 N   0  0  0  0  0  0  0  0  0  0  0  0
   -1.1330   -9.8310  -25.8090 C   0  0  0  0  0  3  0  0  0  0  0  0
   -1.8710   -9.2180  -24.8850 N   0  0  0  0  0  0  0  0  0  0  0  0
   -1.6300   -9.5260  -23.5940 C   0  0  0  0  0  0  0  0  0  0  0  0
   -2.2560   -8.8710  -22.5320 C   0  0  0  0  0  0  0  0  0  0  0  0
   -2.1690   -9.3000  -21.1970 C   0  0  0  0  0  3  0  0  0  0  0  0
   -1.3560  -10.3740  -20.8830 C   0  0  0  0  0  3  0  0  0  0  0  0
   -0.5560  -10.9110  -21.8840 C   0  0  0  0  0  3  0  0  0  0  0  0
   -0.6630  -10.4620  -23.2320 C   0  0  0  0  0  0  0  0  0  0  0  0
   -2.7560   -7.5010  -22.7660 C   0  0  0  0  0  0  0  0  0  0  0  0
   -4.0610   -7.4770  -23.2100 N   0  0  0  0  0  0  0  0  0  0  0  0
   -2.0960   -6.5060  -22.5930 O   0  0  0  0  0  0  0  0  0  0  0  0
   -4.5050   -6.5760  -23.3330 H   0  0  0  0  0  0  0  0  0  0  0  0
   -4.6150   -8.3130  -23.3340 H   0  0  0  0  0  0  0  0  0  0  0  0
  1  6  1  0  0  0  0
  2  3  1  0  0  0  0
  2  1  2  0  0  0  0
  3  4  2  0  0  0  0
  4  5  1  0  0  0  0
  5 20  1  0  0  0  0
  6  5  2  0  0  0  0
  7 14  1  0  0  0  0
  7  9  1  0  0  0  0
  8  7  2  0  0  0  0
  9  1  1  0  0  0  0
  9 10  1  0  0  0  0
 11 19  1  0  0  0  0
 11 16  1  0  0  0  0
 12 11  2  0  0  0  0
 13 12  1  0  0  0  0
 13 14  2  0  0  0  0
 14 15  1  0  0  0  0
 15 16  2  0  0  0  0
 16 17  1  0  0  0  0
 19 18  1  0  0  0  0
 20 22  1  0  0  0  0
 20 21  1  1  0  0  0
 22 23  1  0  0  0  0
 24 22  1  0  0  0  0
 24 33  1  0  0  0  0
 25 24  2  0  0  0  0
 26 25  1  0  0  0  0
 26 27  2  0  0  0  0
 27 28  1  0  0  0  0
 28 33  2  0  0  0  0
 28 29  1  0  0  0  0
 29 30  2  0  0  0  0
 30 31  1  0  0  0  0
 32 31  2  0  0  0  0
 33 32  1  0  0  0  0
 34 36  2  0  0  0  0
 34 29  1  0  0  0  0
 35 34  1  0  0  0  0
 37 35  1  0  0  0  0
 38 35  1  0  0  0  0
M  END
>  <minimizedAffinity>
-9.41726017

$$$$

 OpenBabel10152419573D

 38 41  0  0  1  0  0  0  0  0999 V2000
    1.3680   -5.9010  -27.7000 C   0  0  0  0  0  0  0  0  0  0  0  0
    0.8070   -4.6610  -28.0070 C   0  0  0  0  0  3  0  0  0  0  0  0
   -0.2790   -4.1800  -27.2780 C   0  0  0  0  0  3  0  0  0  0  0  0
   -0.7530   -4.8960  -26.1770 C   0  0  0  0  0  3  0  0  0  0  0  0
   -0.1540   -6.1090  -25.7990 C   0  0  0  0  0  0  0  0  0  0  0  0
    0.8660   -6.6410  -26.6210 C   0  0  0  0  0  3  0  0  0  0  0  0
    3.5400   -7.1150  -27.9830 C   0  0  0  0  0  0  0  0  0  0  0  0
    4.7220   -6.8520  -28.1870 O   0  0  0  0  0  0  0  0  0  0  0  0
    2.5420   -6.2630  -28.3850 N   0  0  0  0  0  0  0  0  0  0  0  0
    2.7950   -5.6860  -29.1800 H   0  0  0  0  0  0  0  0  0  0  0  0
    2.9060  -11.0800  -26.5240 C   0  0  0  0  0  0  0  0  0  0  0  0
    2.7050   -9.9830  -25.6840 C   0  0  0  0  0  3  0  0  0  0  0  0
    2.8400   -8.6830  -26.1810 C   0  0  0  0  0  3  0  0  0  0  0  0
    3.1720   -8.4790  -27.5250 C   0  0  0  0  0  0  0  0  0  0  0  0
    3.3870   -9.5780  -28.3650 C   0  0  0  0  0  3  0  0  0  0  0  0
    3.2620  -10.8680  -27.8580 C   0  0  0  0  0  0  0  0  0  0  0  0
    3.5720  -11.8950  -28.6640 F   0  0  0  0  0  0  0  0  0  0  0  0
    4.0570  -12.6610  -25.2690 C   0  0  0  0  0  1  0  0  0  0  0  0
    2.8420  -12.3130  -25.9340 O   0  0  0  0  0  0  0  0  0  0  0  0
   -0.4940   -6.7800  -24.4620 C   0  0  1  0  0  3  0  0  0  0  0  0
   -0.1080   -5.8660  -23.2940 C   0  0  0  0  0  1  0  0  0  0  0  0
   -1.9140   -7.1130  -24.3550 N   0  0  0  0  0  0  0  0  0  0  0  0
   -2.5370   -6.7960  -25.0790 H   0  0  0  0  0  0  0  0  0  0  0  0
   -2.1940   -8.3080  -23.6880 C   0  0  0  0  0  0  0  0  0  0  0  0
   -2.5130   -8.2060  -22.3870 N   0  0  0  0  0  0  0  0  0  0  0  0
   -2.2640   -9.2700  -21.6320 C   0  0  0  0  0  3  0  0  0  0  0  0
   -1.6210  -10.3630  -22.0400 N   0  0  0  0  0  0  0  0  0  0  0  0
   -1.3810  -10.4840  -23.3610 C   0  0  0  0  0  0  0  0  0  0  0  0
   -0.6200  -11.5240  -23.8990 C   0  0  0  0  0  0  0  0  0  0  0  0
   -0.5180  -11.7790  -25.2760 C   0  0  0  0  0  3  0  0  0  0  0  0
   -1.1260  -10.9170  -26.1710 C   0  0  0  0  0  3  0  0  0  0  0  0
   -1.7090   -9.7560  -25.6770 C   0  0  0  0  0  3  0  0  0  0  0  0
   -1.8030   -9.5200  -24.2750 C   0  0  0  0  0  0  0  0  0  0  0  0
    0.3720  -12.1770  -23.0200 C   0  0  0  0  0  0  0  0  0  0  0  0
   -0.2110  -12.9510  -22.0390 N   0  0  0  0  0  0  0  0  0  0  0  0
    1.5650  -12.0460  -23.1400 O   0  0  0  0  0  0  0  0  0  0  0  0
    0.3970  -13.4870  -21.4340 H   0  0  0  0  0  0  0  0  0  0  0  0
   -1.2100  -13.0720  -21.9560 H   0  0  0  0  0  0  0  0  0  0  0  0
  1  6  1  0  0  0  0
  2  1  2  0  0  0  0
  2  3  1  0  0  0  0
  3  4  2  0  0  0  0
  4  5  1  0  0  0  0
  5 20  1  0  0  0  0
  6  5  2  0  0  0  0
  7 14  1  0  0  0  0
  8  7  2  0  0  0  0
  9  7  1  0  0  0  0
  9  1  1  0  0  0  0
 10  9  1  0  0  0  0
 11 19  1  0  0  0  0
 11 12  1  0  0  0  0
 13 12  2  0  0  0  0
 14 13  1  0  0  0  0
 15 16  1  0  0  0  0
 15 14  2  0  0  0  0
 16 11  2  0  0  0  0
 17 16  1  0  0  0  0
 19 18  1  0  0  0  0
 20 22  1  0  0  0  0
 20 21  1  1  0  0  0
 22 24  1  0  0  0  0
 23 22  1  0  0  0  0
 24 25  1  0  0  0  0
 25 26  2  0  0  0  0
 27 26  1  0  0  0  0
 28 27  2  0  0  0  0
 29 28  1  0  0  0  0
 29 34  1  0  0  0  0
 30 29  2  0  0  0  0
 31 32  2  0  0  0  0
 31 30  1  0  0  0  0
 32 33  1  0  0  0  0
 33 24  2  0  0  0  0
 33 28  1  0  0  0  0
 34 35  1  0  0  0  0
 35 38  1  0  0  0  0
 35 37  1  0  0  0  0
 36 34  2  0  0  0  0
M  END
>  <minimizedAffinity>
-8.99766636

$$$$

 OpenBabel10152419573D

 38 41  0  0  1  0  0  0  0  0999 V2000
    1.0520  -11.0990  -24.8600 C   0  0  0  0  0  0  0  0  0  0  0  0
    0.5880  -11.4420  -26.1300 C   0  0  0  0  0  3  0  0  0  0  0  0
   -0.7560  -11.2740  -26.4570 C   0  0  0  0  0  3  0  0  0  0  0  0
   -1.6270  -10.6760  -25.5460 C   0  0  0  0  0  3  0  0  0  0  0  0
   -1.1680  -10.2500  -24.2880 C   0  0  0  0  0  0  0  0  0  0  0  0
    0.1690  -10.5370  -23.9270 C   0  0  0  0  0  3  0  0  0  0  0  0
    3.4470  -11.2880  -25.5680 C   0  0  0  0  0  0  0  0  0  0  0  0
    4.4100  -12.0220  -25.3670 O   0  0  0  0  0  0  0  0  0  0  0  0
    2.4400  -11.1680  -24.6420 N   0  0  0  0  0  0  0  0  0  0  0  0
    2.7370  -11.3510  -23.6900 H   0  0  0  0  0  0  0  0  0  0  0  0
    3.9820   -8.4310  -28.6980 C   0  0  0  0  0  0  0  0  0  0  0  0
    4.3700   -9.7600  -28.8870 C   0  0  0  0  0  3  0  0  0  0  0  0
    4.1270  -10.7110  -27.8920 C   0  0  0  0  0  3  0  0  0  0  0  0
    3.4890  -10.3340  -26.7040 C   0  0  0  0  0  0  0  0  0  0  0  0
    3.1120   -9.0000  -26.5090 C   0  0  0  0  0  3  0  0  0  0  0  0
    3.3680   -8.0580  -27.5010 C   0  0  0  0  0  0  0  0  0  0  0  0
    3.0840   -6.7730  -27.2390 F   0  0  0  0  0  0  0  0  0  0  0  0
    3.9650   -8.0110  -30.9830 C   0  0  0  0  0  1  0  0  0  0  0  0
    4.3390   -7.5510  -29.6840 O   0  0  0  0  0  0  0  0  0  0  0  0
   -2.0400   -9.3760  -23.3780 C   0  0  1  0  0  3  0  0  0  0  0  0
   -1.3130   -9.0850  -22.0620 C   0  0  0  0  0  1  0  0  0  0  0  0
   -2.4040   -8.1090  -24.0100 N   0  0  0  0  0  0  0  0  0  0  0  0
   -3.3750   -7.8430  -24.0290 H   0  0  0  0  0  0  0  0  0  0  0  0
   -1.4250   -7.1140  -23.9500 C   0  0  0  0  0  0  0  0  0  0  0  0
   -1.3500   -6.4180  -22.8040 N   0  0  0  0  0  0  0  0  0  0  0  0
   -0.8510   -5.1890  -22.8900 C   0  0  0  0  0  3  0  0  0  0  0  0
   -0.5400   -4.5690  -24.0270 N   0  0  0  0  0  0  0  0  0  0  0  0
   -0.5430   -5.3060  -25.1570 C   0  0  0  0  0  0  0  0  0  0  0  0
   -0.3470   -4.7490  -26.4220 C   0  0  0  0  0  0  0  0  0  0  0  0
   -0.1540   -5.5140  -27.5840 C   0  0  0  0  0  3  0  0  0  0  0  0
   -0.2460   -6.8920  -27.5100 C   0  0  0  0  0  3  0  0  0  0  0  0
   -0.6520   -7.4630  -26.3100 C   0  0  0  0  0  3  0  0  0  0  0  0
   -0.8390   -6.6680  -25.1430 C   0  0  0  0  0  0  0  0  0  0  0  0
   -0.6750   -3.3200  -26.6050 C   0  0  0  0  0  0  0  0  0  0  0  0
    0.2320   -2.6620  -27.4070 N   0  0  0  0  0  0  0  0  0  0  0  0
   -1.6310   -2.7820  -26.1040 O   0  0  0  0  0  0  0  0  0  0  0  0
    0.0470   -1.6950  -27.6390 H   0  0  0  0  0  0  0  0  0  0  0  0
    1.0200   -3.1240  -27.8390 H   0  0  0  0  0  0  0  0  0  0  0  0
  1  9  1  0  0  0  0
  1  6  1  0  0  0  0
  2  1  2  0  0  0  0
  3  2  1  0  0  0  0
  3  4  2  0  0  0  0
  4  5  1  0  0  0  0
  5  6  2  0  0  0  0
  5 20  1  0  0  0  0
  7  8  2  0  0  0  0
  7  9  1  0  0  0  0
  9 10  1  0  0  0  0
 11 16  1  0  0  0  0
 12 11  2  0  0  0  0
 12 13  1  0  0  0  0
 13 14  2  0  0  0  0
 14 15  1  0  0  0  0
 14  7  1  0  0  0  0
 16 17  1  0  0  0  0
 16 15  2  0  0  0  0
 18 19  1  0  0  0  0
 19 11  1  0  0  0  0
 20 21  1  1  0  0  0
 22 24  1  0  0  0  0
 22 20  1  0  0  0  0
 23 22  1  0  0  0  0
 24 25  1  0  0  0  0
 26 25  2  0  0  0  0
 27 26  1  0  0  0  0
 28 33  1  0  0  0  0
 28 27  2  0  0  0  0
 29 28  1  0  0  0  0
 30 31  1  0  0  0  0
 30 29  2  0  0  0  0
 31 32  2  0  0  0  0
 32 33  1  0  0  0  0
 33 24  2  0  0  0  0
 34 29  1  0  0  0  0
 34 36  2  0  0  0  0
 35 34  1  0  0  0  0
 37 35  1  0  0  0  0
 38 35  1  0  0  0  0
M  END
>  <minimizedAffinity>
-8.65341091

$$$$

 OpenBabel10152419573D

 38 41  0  0  1  0  0  0  0  0999 V2000
   -1.4880   -8.9950  -22.3480 C   0  0  0  0  0  0  0  0  0  0  0  0
   -2.8720   -8.9740  -22.1660 C   0  0  0  0  0  3  0  0  0  0  0  0
   -3.6590   -8.0610  -22.8650 C   0  0  0  0  0  3  0  0  0  0  0  0
   -3.0780   -7.2240  -23.8180 C   0  0  0  0  0  3  0  0  0  0  0  0
   -1.6980   -7.2800  -24.0770 C   0  0  0  0  0  0  0  0  0  0  0  0
   -0.8970   -8.1250  -23.2750 C   0  0  0  0  0  3  0  0  0  0  0  0
   -0.6240  -11.3340  -22.1130 C   0  0  0  0  0  0  0  0  0  0  0  0
   -0.6690  -12.2540  -21.3010 O   0  0  0  0  0  0  0  0  0  0  0  0
   -0.7730  -10.0280  -21.7160 N   0  0  0  0  0  0  0  0  0  0  0  0
   -0.4950   -9.8600  -20.7550 H   0  0  0  0  0  0  0  0  0  0  0  0
    0.9050  -11.7200  -26.0830 C   0  0  0  0  0  0  0  0  0  0  0  0
    1.6810  -12.1160  -24.9910 C   0  0  0  0  0  3  0  0  0  0  0  0
    1.1530  -12.0590  -23.6980 C   0  0  0  0  0  3  0  0  0  0  0  0
   -0.1570  -11.6110  -23.4950 C   0  0  0  0  0  0  0  0  0  0  0  0
   -0.9310  -11.2010  -24.5870 C   0  0  0  0  0  3  0  0  0  0  0  0
   -0.3930  -11.2500  -25.8700 C   0  0  0  0  0  0  0  0  0  0  0  0
   -1.1260  -10.7580  -26.8800 F   0  0  0  0  0  0  0  0  0  0  0  0
    2.7570  -12.4520  -27.2800 C   0  0  0  0  0  1  0  0  0  0  0  0
    1.5290  -11.7230  -27.3010 O   0  0  0  0  0  0  0  0  0  0  0  0
   -1.0850   -6.5530  -25.2810 C   0  0  1  0  0  3  0  0  0  0  0  0
   -0.2880   -5.3300  -24.8160 C   0  0  0  0  0  1  0  0  0  0  0  0
   -0.2080   -7.4220  -26.0640 N   0  0  0  0  0  0  0  0  0  0  0  0
   -0.5960   -8.2590  -26.4650 H   0  0  0  0  0  0  0  0  0  0  0  0
    0.8380   -6.7710  -26.7220 C   0  0  0  0  0  0  0  0  0  0  0  0
    0.5000   -5.7200  -27.4890 N   0  0  0  0  0  0  0  0  0  0  0  0
    1.3190   -5.4350  -28.4950 C   0  0  0  0  0  3  0  0  0  0  0  0
    2.3640   -6.1740  -28.8620 N   0  0  0  0  0  0  0  0  0  0  0  0
    2.7370   -7.1740  -28.0380 C   0  0  0  0  0  0  0  0  0  0  0  0
    3.7420   -8.0870  -28.3650 C   0  0  0  0  0  0  0  0  0  0  0  0
    4.2780   -9.0100  -27.4520 C   0  0  0  0  0  3  0  0  0  0  0  0
    3.7390   -9.0960  -26.1810 C   0  0  0  0  0  3  0  0  0  0  0  0
    2.6000   -8.3520  -25.8960 C   0  0  0  0  0  3  0  0  0  0  0  0
    2.0760   -7.4200  -26.8360 C   0  0  0  0  0  0  0  0  0  0  0  0
    4.0250   -8.3170  -29.7970 C   0  0  0  0  0  0  0  0  0  0  0  0
    4.5660   -7.2130  -30.4190 N   0  0  0  0  0  0  0  0  0  0  0  0
    3.8020   -9.3570  -30.3670 O   0  0  0  0  0  0  0  0  0  0  0  0
    4.8520   -7.3040  -31.3850 H   0  0  0  0  0  0  0  0  0  0  0  0
    4.7680   -6.3510  -29.9310 H   0  0  0  0  0  0  0  0  0  0  0  0
  1  2  1  0  0  0  0
  1  9  1  0  0  0  0
  3  2  2  0  0  0  0
  4  3  1  0  0  0  0
  5  4  2  0  0  0  0
  5  6  1  0  0  0  0
  6  1  2  0  0  0  0
  7  9  1  0  0  0  0
  7  8  2  0  0  0  0
  9 10  1  0  0  0  0
 11 16  2  0  0  0  0
 11 12  1  0  0  0  0
 12 13  2  0  0  0  0
 13 14  1  0  0  0  0
 14  7  1  0  0  0  0
 15 14  2  0  0  0  0
 16 15  1  0  0  0  0
 17 16  1  0  0  0  0
 19 18  1  0  0  0  0
 19 11  1  0  0  0  0
 20 21  1  1  0  0  0
 20  5  1  0  0  0  0
 22 20  1  0  0  0  0
 23 22  1  0  0  0  0
 24 22  1  0  0  0  0
 25 24  2  0  0  0  0
 26 25  1  0  0  0  0
 27 26  2  0  0  0  0
 27 28  1  0  0  0  0
 28 33  1  0  0  0  0
 29 28  2  0  0  0  0
 29 30  1  0  0  0  0
 30 31  2  0  0  0  0
 31 32  1  0  0  0  0
 33 24  1  0  0  0  0
 33 32  2  0  0  0  0
 34 29  1  0  0  0  0
 35 38  1  0  0  0  0
 35 34  1  0  0  0  0
 36 34  2  0  0  0  0
 37 35  1  0  0  0  0
M  END
>  <minimizedAffinity>
-8.11474609

$$$$

 OpenBabel10152419573D

 38 41  0  0  1  0  0  0  0  0999 V2000
    3.2180   -6.8410  -28.3320 C   0  0  0  0  0  0  0  0  0  0  0  0
    3.9290   -7.1120  -29.5020 C   0  0  0  0  0  3  0  0  0  0  0  0
    4.4340   -8.3880  -29.7380 C   0  0  0  0  0  3  0  0  0  0  0  0
    4.1540   -9.4260  -28.8480 C   0  0  0  0  0  3  0  0  0  0  0  0
    3.3730   -9.1970  -27.7020 C   0  0  0  0  0  0  0  0  0  0  0  0
    2.9710   -7.8730  -27.4160 C   0  0  0  0  0  3  0  0  0  0  0  0
    1.2910   -5.2580  -28.1010 C   0  0  0  0  0  0  0  0  0  0  0  0
    0.8040   -4.3060  -28.7040 O   0  0  0  0  0  0  0  0  0  0  0  0
    2.6220   -5.5720  -28.2220 N   0  0  0  0  0  0  0  0  0  0  0  0
    3.2080   -4.7780  -28.4570 H   0  0  0  0  0  0  0  0  0  0  0  0
   -1.3400   -6.9040  -25.1640 C   0  0  0  0  0  0  0  0  0  0  0  0
   -1.2860   -7.4550  -26.4470 C   0  0  0  0  0  3  0  0  0  0  0  0
   -0.3730   -6.9660  -27.3840 C   0  0  0  0  0  3  0  0  0  0  0  0
    0.4950   -5.9230  -27.0390 C   0  0  0  0  0  0  0  0  0  0  0  0
    0.4330   -5.3610  -25.7580 C   0  0  0  0  0  3  0  0  0  0  0  0
   -0.4880   -5.8480  -24.8350 C   0  0  0  0  0  0  0  0  0  0  0  0
   -0.5880   -5.2200  -23.6530 F   0  0  0  0  0  0  0  0  0  0  0  0
   -1.8010   -7.8980  -23.1160 C   0  0  0  0  0  1  0  0  0  0  0  0
   -2.3230   -7.3820  -24.3410 O   0  0  0  0  0  0  0  0  0  0  0  0
    2.8510  -10.3620  -26.8510 C   0  0  1  0  0  3  0  0  0  0  0  0
    4.0170  -11.1000  -26.1860 C   0  0  0  0  0  1  0  0  0  0  0  0
    1.9180   -9.9170  -25.8170 N   0  0  0  0  0  0  0  0  0  0  0  0
    1.8440   -8.9310  -25.6290 H   0  0  0  0  0  0  0  0  0  0  0  0
    0.7970  -10.7310  -25.6400 C   0  0  0  0  0  0  0  0  0  0  0  0
   -0.3120  -10.3740  -26.3100 N   0  0  0  0  0  0  0  0  0  0  0  0
   -1.4700  -10.7600  -25.7840 C   0  0  0  0  0  3  0  0  0  0  0  0
   -1.6100  -11.3580  -24.6020 N   0  0  0  0  0  0  0  0  0  0  0  0
   -0.4900  -11.7820  -23.9840 C   0  0  0  0  0  0  0  0  0  0  0  0
   -0.4950  -12.3190  -22.6950 C   0  0  0  0  0  0  0  0  0  0  0  0
    0.6210  -12.9400  -22.1090 C   0  0  0  0  0  3  0  0  0  0  0  0
    1.8230  -12.9560  -22.7930 C   0  0  0  0  0  3  0  0  0  0  0  0
    1.9150  -12.2430  -23.9830 C   0  0  0  0  0  3  0  0  0  0  0  0
    0.7700  -11.6230  -24.5590 C   0  0  0  0  0  0  0  0  0  0  0  0
   -1.6010  -11.9370  -21.7930 C   0  0  0  0  0  0  0  0  0  0  0  0
   -1.7830  -10.5720  -21.7200 N   0  0  0  0  0  0  0  0  0  0  0  0
   -2.2720  -12.7300  -21.1800 O   0  0  0  0  0  0  0  0  0  0  0  0
   -2.5620  -10.2260  -21.1750 H   0  0  0  0  0  0  0  0  0  0  0  0
   -1.2300   -9.9140  -22.2510 H   0  0  0  0  0  0  0  0  0  0  0  0
  1  9  1  0  0  0  0
  1  6  1  0  0  0  0
  2  1  2  0  0  0  0
  3  2  1  0  0  0  0
  3  4  2  0  0  0  0
  4  5  1  0  0  0  0
  5  6  2  0  0  0  0
  5 20  1  0  0  0  0
  7 14  1  0  0  0  0
  8  7  2  0  0  0  0
  9  7  1  0  0  0  0
 10  9  1  0  0  0  0
 11 16  1  0  0  0  0
 11 19  1  0  0  0  0
 12 11  2  0  0  0  0
 13 14  2  0  0  0  0
 13 12  1  0  0  0  0
 14 15  1  0  0  0  0
 15 16  2  0  0  0  0
 16 17  1  0  0  0  0
 19 18  1  0  0  0  0
 20 21  1  1  0  0  0
 20 22  1  0  0  0  0
 22 24  1  0  0  0  0
 22 23  1  0  0  0  0
 24 33  1  0  0  0  0
 25 26  1  0  0  0  0
 25 24  2  0  0  0  0
 26 27  2  0  0  0  0
 27 28  1  0  0  0  0
 28 29  1  0  0  0  0
 29 30  2  0  0  0  0
 29 34  1  0  0  0  0
 31 30  1  0  0  0  0
 32 31  2  0  0  0  0
 33 28  2  0  0  0  0
 33 32  1  0  0  0  0
 34 35  1  0  0  0  0
 34 36  2  0  0  0  0
 35 37  1  0  0  0  0
 38 35  1  0  0  0  0
M  END
>  <minimizedAffinity>
-7.82170916

$$$$

 OpenBabel10152419573D

 38 41  0  0  1  0  0  0  0  0999 V2000
    3.0250   -7.8890  -27.4520 C   0  0  0  0  0  0  0  0  0  0  0  0
    4.3670   -8.2540  -27.3450 C   0  0  0  0  0  3  0  0  0  0  0  0
    4.7220   -9.4670  -26.7580 C   0  0  0  0  0  3  0  0  0  0  0  0
    3.7320  -10.3640  -26.3560 C   0  0  0  0  0  3  0  0  0  0  0  0
    2.3710  -10.0540  -26.5230 C   0  0  0  0  0  0  0  0  0  0  0  0
    2.0290   -8.7710  -27.0090 C   0  0  0  0  0  3  0  0  0  0  0  0
    1.5650   -5.9980  -28.2010 C   0  0  0  0  0  0  0  0  0  0  0  0
    1.1300   -5.5310  -29.2500 O   0  0  0  0  0  0  0  0  0  0  0  0
    2.7330   -6.7180  -28.1740 N   0  0  0  0  0  0  0  0  0  0  0  0
    3.3780   -6.4760  -28.9180 H   0  0  0  0  0  0  0  0  0  0  0  0
   -0.5530   -4.9730  -24.6350 C   0  0  0  0  0  0  0  0  0  0  0  0
    0.1580   -6.1730  -24.7090 C   0  0  0  0  0  3  0  0  0  0  0  0
    0.9120   -6.4740  -25.8470 C   0  0  0  0  0  3  0  0  0  0  0  0
    0.9600   -5.5710  -26.9140 C   0  0  0  0  0  0  0  0  0  0  0  0
    0.2360   -4.3740  -26.8470 C   0  0  0  0  0  3  0  0  0  0  0  0
   -0.5200   -4.0880  -25.7150 C   0  0  0  0  0  0  0  0  0  0  0  0
   -1.2780   -2.9810  -25.7260 F   0  0  0  0  0  0  0  0  0  0  0  0
   -1.0780   -5.7840  -22.5220 C   0  0  0  0  0  1  0  0  0  0  0  0
   -1.3340   -4.8010  -23.5250 O   0  0  0  0  0  0  0  0  0  0  0  0
    1.2830  -11.1160  -26.3190 C   0  0  1  0  0  3  0  0  0  0  0  0
    1.7450  -12.4660  -26.8750 C   0  0  0  0  0  1  0  0  0  0  0  0
    0.9270  -11.2790  -24.9100 N   0  0  0  0  0  0  0  0  0  0  0  0
    1.6650  -11.2760  -24.2250 H   0  0  0  0  0  0  0  0  0  0  0  0
   -0.3340  -10.7920  -24.5570 C   0  0  0  0  0  0  0  0  0  0  0  0
   -0.8350   -9.8140  -25.3300 N   0  0  0  0  0  0  0  0  0  0  0  0
   -1.7110   -8.9970  -24.7560 C   0  0  0  0  0  3  0  0  0  0  0  0
   -2.0290   -9.0050  -23.4620 N   0  0  0  0  0  0  0  0  0  0  0  0
   -1.5830  -10.0390  -22.7200 C   0  0  0  0  0  0  0  0  0  0  0  0
   -1.7530  -10.1040  -21.3360 C   0  0  0  0  0  0  0  0  0  0  0  0
   -1.4720  -11.2490  -20.5730 C   0  0  0  0  0  3  0  0  0  0  0  0
   -0.9170  -12.3550  -21.1910 C   0  0  0  0  0  3  0  0  0  0  0  0
   -0.5390  -12.2450  -22.5240 C   0  0  0  0  0  3  0  0  0  0  0  0
   -0.8360  -11.0740  -23.2790 C   0  0  0  0  0  0  0  0  0  0  0  0
   -1.9200   -8.8320  -20.6020 C   0  0  0  0  0  0  0  0  0  0  0  0
   -3.1140   -8.2050  -20.8850 N   0  0  0  0  0  0  0  0  0  0  0  0
   -1.1000   -8.3840  -19.8390 O   0  0  0  0  0  0  0  0  0  0  0  0
   -3.3400   -7.3600  -20.3750 H   0  0  0  0  0  0  0  0  0  0  0  0
   -3.8060   -8.5950  -21.5100 H   0  0  0  0  0  0  0  0  0  0  0  0
  1  2  2  0  0  0  0
  1  6  1  0  0  0  0
  2  3  1  0  0  0  0
  3  4  2  0  0  0  0
  5  4  1  0  0  0  0
  5 20  1  0  0  0  0
  6  5  2  0  0  0  0
  7  9  1  0  0  0  0
  7 14  1  0  0  0  0
  8  7  2  0  0  0  0
  9  1  1  0  0  0  0
 10  9  1  0  0  0  0
 11 19  1  0  0  0  0
 12 11  1  0  0  0  0
 13 12  2  0  0  0  0
 14 15  2  0  0  0  0
 14 13  1  0  0  0  0
 15 16  1  0  0  0  0
 16 11  2  0  0  0  0
 17 16  1  0  0  0  0
 19 18  1  0  0  0  0
 20 21  1  1  0  0  0
 20 22  1  0  0  0  0
 22 24  1  0  0  0  0
 22 23  1  0  0  0  0
 24 33  1  0  0  0  0
 25 26  1  0  0  0  0
 25 24  2  0  0  0  0
 26 27  2  0  0  0  0
 27 28  1  0  0  0  0
 28 29  1  0  0  0  0
 29 34  1  0  0  0  0
 29 30  2  0  0  0  0
 31 30  1  0  0  0  0
 32 31  2  0  0  0  0
 33 28  2  0  0  0  0
 33 32  1  0  0  0  0
 34 36  2  0  0  0  0
 35 34  1  0  0  0  0
 35 37  1  0  0  0  0
 38 35  1  0  0  0  0
M  END
>  <minimizedAffinity>
-7.66362667

$$$$

 OpenBabel10152419573D

 38 41  0  0  1  0  0  0  0  0999 V2000
   -0.3070   -6.3270  -23.9520 C   0  0  0  0  0  0  0  0  0  0  0  0
   -0.8920   -5.1180  -24.3330 C   0  0  0  0  0  3  0  0  0  0  0  0
   -0.5420   -4.5170  -25.5400 C   0  0  0  0  0  3  0  0  0  0  0  0
    0.3280   -5.1660  -26.4170 C   0  0  0  0  0  3  0  0  0  0  0  0
    0.8710   -6.4210  -26.0920 C   0  0  0  0  0  0  0  0  0  0  0  0
    0.6000   -6.9590  -24.8130 C   0  0  0  0  0  3  0  0  0  0  0  0
   -1.7240   -7.9570  -22.6850 C   0  0  0  0  0  0  0  0  0  0  0  0
   -2.5910   -7.9420  -21.8160 O   0  0  0  0  0  0  0  0  0  0  0  0
   -0.8040   -6.9430  -22.7900 N   0  0  0  0  0  0  0  0  0  0  0  0
   -0.6250   -6.4640  -21.9140 H   0  0  0  0  0  0  0  0  0  0  0  0
   -0.7320  -11.3380  -25.1010 C   0  0  0  0  0  0  0  0  0  0  0  0
   -0.2610  -11.2510  -23.7890 C   0  0  0  0  0  3  0  0  0  0  0  0
   -0.6460  -10.1820  -22.9740 C   0  0  0  0  0  3  0  0  0  0  0  0
   -1.5100   -9.1990  -23.4700 C   0  0  0  0  0  0  0  0  0  0  0  0
   -1.9720   -9.2780  -24.7900 C   0  0  0  0  0  3  0  0  0  0  0  0
   -1.5740  -10.3400  -25.5970 C   0  0  0  0  0  0  0  0  0  0  0  0
   -1.9550  -10.3310  -26.8830 F   0  0  0  0  0  0  0  0  0  0  0  0
    1.0250  -12.0460  -26.4460 C   0  0  0  0  0  1  0  0  0  0  0  0
   -0.2350  -12.3660  -25.8550 O   0  0  0  0  0  0  0  0  0  0  0  0
    1.6240   -7.2550  -27.1360 C   0  0  1  0  0  3  0  0  0  0  0  0
    1.9120   -6.4140  -28.3830 C   0  0  0  0  0  1  0  0  0  0  0  0
    2.8850   -7.7820  -26.6170 N   0  0  0  0  0  0  0  0  0  0  0  0
    2.8770   -8.2650  -25.7340 H   0  0  0  0  0  0  0  0  0  0  0  0
    3.8170   -8.1550  -27.5890 C   0  0  0  0  0  0  0  0  0  0  0  0
    3.9490   -7.3270  -28.6390 N   0  0  0  0  0  0  0  0  0  0  0  0
    4.3800   -7.8710  -29.7710 C   0  0  0  0  0  3  0  0  0  0  0  0
    4.5690   -9.1760  -29.9680 N   0  0  0  0  0  0  0  0  0  0  0  0
    4.5110   -9.9810  -28.8890 C   0  0  0  0  0  0  0  0  0  0  0  0
    4.5800  -11.3720  -28.9790 C   0  0  0  0  0  0  0  0  0  0  0  0
    4.7160  -12.2170  -27.8650 C   0  0  0  0  0  3  0  0  0  0  0  0
    4.6970  -11.6700  -26.5950 C   0  0  0  0  0  3  0  0  0  0  0  0
    4.4160  -10.3140  -26.4640 C   0  0  0  0  0  3  0  0  0  0  0  0
    4.2840   -9.4770  -27.6090 C   0  0  0  0  0  0  0  0  0  0  0  0
    4.1690  -12.0010  -30.2520 C   0  0  0  0  0  0  0  0  0  0  0  0
    3.0810  -11.3810  -30.8280 N   0  0  0  0  0  0  0  0  0  0  0  0
    4.7200  -12.9590  -30.7360 O   0  0  0  0  0  0  0  0  0  0  0  0
    2.7740  -11.7060  -31.7350 H   0  0  0  0  0  0  0  0  0  0  0  0
    2.6360  -10.5670  -30.4270 H   0  0  0  0  0  0  0  0  0  0  0  0
  1  9  1  0  0  0  0
  2  1  1  0  0  0  0
  3  2  2  0  0  0  0
  4  5  2  0  0  0  0
  4  3  1  0  0  0  0
  5  6  1  0  0  0  0
  6  1  2  0  0  0  0
  7  8  2  0  0  0  0
  9  7  1  0  0  0  0
  9 10  1  0  0  0  0
 11 12  1  0  0  0  0
 12 13  2  0  0  0  0
 14 13  1  0  0  0  0
 14  7  1  0  0  0  0
 15 14  2  0  0  0  0
 16 11  2  0  0  0  0
 16 15  1  0  0  0  0
 17 16  1  0  0  0  0
 18 19  1  0  0  0  0
 19 11  1  0  0  0  0
 20 21  1  6  0  0  0
 20 22  1  0  0  0  0
 20  5  1  0  0  0  0
 22 23  1  0  0  0  0
 24 22  1  0  0  0  0
 25 24  2  0  0  0  0
 26 25  1  0  0  0  0
 27 26  2  0  0  0  0
 27 28  1  0  0  0  0
 28 33  1  0  0  0  0
 29 28  2  0  0  0  0
 29 30  1  0  0  0  0
 30 31  2  0  0  0  0
 31 32  1  0  0  0  0
 33 24  1  0  0  0  0
 33 32  2  0  0  0  0
 34 29  1  0  0  0  0
 35 38  1  0  0  0  0
 35 34  1  0  0  0  0
 36 34  2  0  0  0  0
 37 35  1  0  0  0  0
M  END
>  <minimizedAffinity>
-7.56686449

$$$$

 OpenBabel10152419573D

 38 41  0  0  1  0  0  0  0  0999 V2000
    1.2850  -12.9230  -24.1290 C   0  0  0  0  0  0  0  0  0  0  0  0
    2.1320  -12.9580  -23.0200 C   0  0  0  0  0  3  0  0  0  0  0  0
    3.5060  -12.7950  -23.1790 C   0  0  0  0  0  3  0  0  0  0  0  0
    4.0340  -12.5050  -24.4380 C   0  0  0  0  0  3  0  0  0  0  0  0
    3.1940  -12.3870  -25.5590 C   0  0  0  0  0  0  0  0  0  0  0  0
    1.8190  -12.6740  -25.4010 C   0  0  0  0  0  3  0  0  0  0  0  0
   -0.8800  -12.0240  -23.2490 C   0  0  0  0  0  0  0  0  0  0  0  0
   -1.7670  -12.3590  -22.4690 O   0  0  0  0  0  0  0  0  0  0  0  0
   -0.0990  -12.9590  -23.8820 N   0  0  0  0  0  0  0  0  0  0  0  0
   -0.5540  -13.8580  -24.0000 H   0  0  0  0  0  0  0  0  0  0  0  0
   -1.1410   -7.9560  -24.5290 C   0  0  0  0  0  0  0  0  0  0  0  0
   -1.0110   -8.2580  -23.1720 C   0  0  0  0  0  3  0  0  0  0  0  0
   -0.8510   -9.5840  -22.7580 C   0  0  0  0  0  3  0  0  0  0  0  0
   -0.8150  -10.6130  -23.7060 C   0  0  0  0  0  0  0  0  0  0  0  0
   -0.9590  -10.3130  -25.0670 C   0  0  0  0  0  3  0  0  0  0  0  0
   -1.1300   -8.9910  -25.4670 C   0  0  0  0  0  0  0  0  0  0  0  0
   -1.3630   -8.7510  -26.7660 F   0  0  0  0  0  0  0  0  0  0  0  0
   -0.6360   -5.7480  -24.0160 C   0  0  0  0  0  1  0  0  0  0  0  0
   -1.3840   -6.6450  -24.8370 O   0  0  0  0  0  0  0  0  0  0  0  0
    3.7180  -11.8310  -26.8890 C   0  0  1  0  0  3  0  0  0  0  0  0
    3.8710  -12.9580  -27.9140 C   0  0  0  0  0  1  0  0  0  0  0  0
    2.8390  -10.8020  -27.4420 N   0  0  0  0  0  0  0  0  0  0  0  0
    1.9410  -11.0790  -27.8010 H   0  0  0  0  0  0  0  0  0  0  0  0
    2.9860   -9.5310  -26.8800 C   0  0  0  0  0  0  0  0  0  0  0  0
    2.6700   -9.4140  -25.5790 N   0  0  0  0  0  0  0  0  0  0  0  0
    2.2890   -8.2090  -25.1690 C   0  0  0  0  0  3  0  0  0  0  0  0
    2.0860   -7.1610  -25.9650 N   0  0  0  0  0  0  0  0  0  0  0  0
    2.4830   -7.2700  -27.2490 C   0  0  0  0  0  0  0  0  0  0  0  0
    2.2240   -6.2880  -28.2060 C   0  0  0  0  0  0  0  0  0  0  0  0
    2.7900   -6.2890  -29.4920 C   0  0  0  0  0  3  0  0  0  0  0  0
    3.5810   -7.3530  -29.8820 C   0  0  0  0  0  3  0  0  0  0  0  0
    3.6830   -8.4470  -29.0300 C   0  0  0  0  0  3  0  0  0  0  0  0
    3.1030   -8.4230  -27.7300 C   0  0  0  0  0  0  0  0  0  0  0  0
    1.0670   -5.3960  -27.9830 C   0  0  0  0  0  0  0  0  0  0  0  0
   -0.0740   -6.0800  -27.6230 N   0  0  0  0  0  0  0  0  0  0  0  0
    1.1100   -4.1960  -28.1070 O   0  0  0  0  0  0  0  0  0  0  0  0
   -0.8970   -5.5410  -27.3870 H   0  0  0  0  0  0  0  0  0  0  0  0
   -0.0980   -7.0830  -27.5020 H   0  0  0  0  0  0  0  0  0  0  0  0
  1  9  1  0  0  0  0
  1  2  1  0  0  0  0
  3  2  2  0  0  0  0
  4  3  1  0  0  0  0
  5  6  1  0  0  0  0
  5  4  2  0  0  0  0
  6  1  2  0  0  0  0
  7  8  2  0  0  0  0
  9  7  1  0  0  0  0
 10  9  1  0  0  0  0
 11 12  1  0  0  0  0
 12 13  2  0  0  0  0
 14  7  1  0  0  0  0
 14 13  1  0  0  0  0
 15 14  2  0  0  0  0
 16 15  1  0  0  0  0
 16 11  2  0  0  0  0
 17 16  1  0  0  0  0
 19 11  1  0  0  0  0
 19 18  1  0  0  0  0
 20 21  1  6  0  0  0
 20  5  1  0  0  0  0
 22 20  1  0  0  0  0
 22 24  1  0  0  0  0
 23 22  1  0  0  0  0
 24 25  1  0  0  0  0
 25 26  2  0  0  0  0
 27 26  1  0  0  0  0
 28 27  2  0  0  0  0
 29 34  1  0  0  0  0
 29 28  1  0  0  0  0
 30 29  2  0  0  0  0
 31 30  1  0  0  0  0
 31 32  2  0  0  0  0
 32 33  1  0  0  0  0
 33 28  1  0  0  0  0
 33 24  2  0  0  0  0
 34 35  1  0  0  0  0
 35 38  1  0  0  0  0
 35 37  1  0  0  0  0
 36 34  2  0  0  0  0
M  END
>  <minimizedAffinity>
-7.28949499

$$$$

 OpenBabel10152419573D

 38 41  0  0  1  0  0  0  0  0999 V2000
    1.2050   -9.8670  -26.0960 C   0  0  0  0  0  0  0  0  0  0  0  0
    0.0620   -9.5330  -26.8230 C   0  0  0  0  0  3  0  0  0  0  0  0
   -1.0710  -10.3420  -26.7650 C   0  0  0  0  0  3  0  0  0  0  0  0
   -1.0990  -11.4430  -25.9070 C   0  0  0  0  0  3  0  0  0  0  0  0
    0.0120  -11.7560  -25.1050 C   0  0  0  0  0  0  0  0  0  0  0  0
    1.1930  -10.9960  -25.2660 C   0  0  0  0  0  3  0  0  0  0  0  0
    2.3440   -7.7360  -26.7550 C   0  0  0  0  0  0  0  0  0  0  0  0
    3.3880   -7.3790  -27.2950 O   0  0  0  0  0  0  0  0  0  0  0  0
    2.2600   -8.9370  -26.0940 N   0  0  0  0  0  0  0  0  0  0  0  0
    3.1470   -9.2640  -25.7300 H   0  0  0  0  0  0  0  0  0  0  0  0
   -0.5160   -4.6040  -26.2380 C   0  0  0  0  0  0  0  0  0  0  0  0
   -0.0140   -4.8940  -27.5090 C   0  0  0  0  0  3  0  0  0  0  0  0
    0.8640   -5.9660  -27.6910 C   0  0  0  0  0  3  0  0  0  0  0  0
    1.2400   -6.7560  -26.5980 C   0  0  0  0  0  0  0  0  0  0  0  0
    0.7480   -6.4580  -25.3210 C   0  0  0  0  0  3  0  0  0  0  0  0
   -0.1170   -5.3820  -25.1490 C   0  0  0  0  0  0  0  0  0  0  0  0
   -0.4890   -5.0660  -23.8990 F   0  0  0  0  0  0  0  0  0  0  0  0
   -0.6630   -2.3290  -26.6840 C   0  0  0  0  0  1  0  0  0  0  0  0
   -1.2970   -3.4850  -26.1370 O   0  0  0  0  0  0  0  0  0  0  0  0
   -0.0850  -12.8020  -23.9870 C   0  0  1  0  0  3  0  0  0  0  0  0
    1.2070  -12.8250  -23.1650 C   0  0  0  0  0  1  0  0  0  0  0  0
   -1.2130  -12.5510  -23.0920 N   0  0  0  0  0  0  0  0  0  0  0  0
   -1.9320  -13.2510  -23.0170 H   0  0  0  0  0  0  0  0  0  0  0  0
   -0.9240  -11.7490  -21.9840 C   0  0  0  0  0  0  0  0  0  0  0  0
   -0.8720  -12.3710  -20.7940 N   0  0  0  0  0  0  0  0  0  0  0  0
   -1.1320  -11.6250  -19.7260 C   0  0  0  0  0  3  0  0  0  0  0  0
   -1.5510  -10.3610  -19.7600 N   0  0  0  0  0  0  0  0  0  0  0  0
   -1.5200   -9.7290  -20.9510 C   0  0  0  0  0  0  0  0  0  0  0  0
   -2.0360   -8.4460  -21.1390 C   0  0  0  0  0  0  0  0  0  0  0  0
   -1.8440   -7.6970  -22.3120 C   0  0  0  0  0  3  0  0  0  0  0  0
   -1.1840   -8.2720  -23.3820 C   0  0  0  0  0  3  0  0  0  0  0  0
   -0.8470   -9.6190  -23.3030 C   0  0  0  0  0  3  0  0  0  0  0  0
   -1.0500  -10.3580  -22.1030 C   0  0  0  0  0  0  0  0  0  0  0  0
   -3.0920   -7.9850  -20.2140 C   0  0  0  0  0  0  0  0  0  0  0  0
   -4.3010   -7.7800  -20.8420 N   0  0  0  0  0  0  0  0  0  0  0  0
   -2.9170   -7.8010  -19.0340 O   0  0  0  0  0  0  0  0  0  0  0  0
   -5.0970   -7.5270  -20.2710 H   0  0  0  0  0  0  0  0  0  0  0  0
   -4.4460   -7.9550  -21.8270 H   0  0  0  0  0  0  0  0  0  0  0  0
  1  9  1  0  0  0  0
  1  6  1  0  0  0  0
  2  3  1  0  0  0  0
  2  1  2  0  0  0  0
  3  4  2  0  0  0  0
  4  5  1  0  0  0  0
  5 20  1  0  0  0  0
  6  5  2  0  0  0  0
  7 14  1  0  0  0  0
  7  9  1  0  0  0  0
  8  7  2  0  0  0  0
  9 10  1  0  0  0  0
 11 19  1  0  0  0  0
 11 16  1  0  0  0  0
 12 11  2  0  0  0  0
 13 12  1  0  0  0  0
 13 14  2  0  0  0  0
 14 15  1  0  0  0  0
 15 16  2  0  0  0  0
 16 17  1  0  0  0  0
 18 19  1  0  0  0  0
 20 21  1  1  0  0  0
 20 22  1  0  0  0  0
 22 23  1  0  0  0  0
 22 24  1  0  0  0  0
 24 25  1  0  0  0  0
 25 26  2  0  0  0  0
 27 26  1  0  0  0  0
 28 27  2  0  0  0  0
 29 28  1  0  0  0  0
 29 34  1  0  0  0  0
 30 29  2  0  0  0  0
 31 32  2  0  0  0  0
 31 30  1  0  0  0  0
 32 33  1  0  0  0  0
 33 24  2  0  0  0  0
 33 28  1  0  0  0  0
 34 36  2  0  0  0  0
 35 37  1  0  0  0  0
 35 34  1  0  0  0  0
 38 35  1  0  0  0  0
M  END
>  <minimizedAffinity>
-7.23505783

$$$$
