
 OpenBabel10152419573D

 38 41  0  0  1  0  0  0  0  0999 V2000
    1.2050   -9.8670  -26.0960 C   0  0  0  0  0  0  0  0  0  0  0  0
    0.0620   -9.5330  -26.8230 C   0  0  0  0  0  3  0  0  0  0  0  0
   -1.0710  -10.3420  -26.7650 C   0  0  0  0  0  3  0  0  0  0  0  0
   -1.0990  -11.4430  -25.9070 C   0  0  0  0  0  3  0  0  0  0  0  0
    0.0120  -11.7560  -25.1050 C   0  0  0  0  0  0  0  0  0  0  0  0
    1.1930  -10.9960  -25.2660 C   0  0  0  0  0  3  0  0  0  0  0  0
    2.3440   -7.7360  -26.7550 C   0  0  0  0  0  0  0  0  0  0  0  0
    3.3880   -7.3790  -27.2950 O   0  0  0  0  0  0  0  0  0  0  0  0
    2.2600   -8.9370  -26.0940 N   0  0  0  0  0  0  0  0  0  0  0  0
    3.1470   -9.2640  -25.7300 H   0  0  0  0  0  0  0  0  0  0  0  0
   -0.5160   -4.6040  -26.2380 C   0  0  0  0  0  0  0  0  0  0  0  0
   -0.0140   -4.8940  -27.5090 C   0  0  0  0  0  3  0  0  0  0  0  0
    0.8640   -5.9660  -27.6910 C   0  0  0  0  0  3  0  0  0  0  0  0
    1.2400   -6.7560  -26.5980 C   0  0  0  0  0  0  0  0  0  0  0  0
    0.7480   -6.4580  -25.3210 C   0  0  0  0  0  3  0  0  0  0  0  0
   -0.1170   -5.3820  -25.1490 C   0  0  0  0  0  0  0  0  0  0  0  0
   -0.4890   -5.0660  -23.8990 F   0  0  0  0  0  0  0  0  0  0  0  0
   -0.6630   -2.3290  -26.6840 C   0  0  0  0  0  1  0  0  0  0  0  0
   -1.2970   -3.4850  -26.1370 O   0  0  0  0  0  0  0  0  0  0  0  0
   -0.0850  -12.8020  -23.9870 C   0  0  1  0  0  3  0  0  0  0  0  0
    1.2070  -12.8250  -23.1650 C   0  0  0  0  0  1  0  0  0  0  0  0
   -1.2130  -12.5510  -23.0920 N   0  0  0  0  0  0  0  0  0  0  0  0
   -1.9320  -13.2510  -23.0170 H   0  0  0  0  0  0  0  0  0  0  0  0
   -0.9240  -11.7490  -21.9840 C   0  0  0  0  0  0  0  0  0  0  0  0
   -0.8720  -12.3710  -20.7940 N   0  0  0  0  0  0  0  0  0  0  0  0
   -1.1320  -11.6250  -19.7260 C   0  0  0  0  0  3  0  0  0  0  0  0
   -1.5510  -10.3610  -19.7600 N   0  0  0  0  0  0  0  0  0  0  0  0
   -1.5200   -9.7290  -20.9510 C   0  0  0  0  0  0  0  0  0  0  0  0
   -2.0360   -8.4460  -21.1390 C   0  0  0  0  0  0  0  0  0  0  0  0
   -1.8440   -7.6970  -22.3120 C   0  0  0  0  0  3  0  0  0  0  0  0
   -1.1840   -8.2720  -23.3820 C   0  0  0  0  0  3  0  0  0  0  0  0
   -0.8470   -9.6190  -23.3030 C   0  0  0  0  0  3  0  0  0  0  0  0
   -1.0500  -10.3580  -22.1030 C   0  0  0  0  0  0  0  0  0  0  0  0
   -3.0920   -7.9850  -20.2140 C   0  0  0  0  0  0  0  0  0  0  0  0
   -4.3010   -7.7800  -20.8420 N   0  0  0  0  0  0  0  0  0  0  0  0
   -2.9170   -7.8010  -19.0340 O   0  0  0  0  0  0  0  0  0  0  0  0
   -5.0970   -7.5270  -20.2710 H   0  0  0  0  0  0  0  0  0  0  0  0
   -4.4460   -7.9550  -21.8270 H   0  0  0  0  0  0  0  0  0  0  0  0
  1  9  1  0  0  0  0
  1  6  1  0  0  0  0
  2  3  1  0  0  0  0
  2  1  2  0  0  0  0
  3  4  2  0  0  0  0
  4  5  1  0  0  0  0
  5 20  1  0  0  0  0
  6  5  2  0  0  0  0
  7 14  1  0  0  0  0
  7  9  1  0  0  0  0
  8  7  2  0  0  0  0
  9 10  1  0  0  0  0
 11 19  1  0  0  0  0
 11 16  1  0  0  0  0
 12 11  2  0  0  0  0
 13 12  1  0  0  0  0
 13 14  2  0  0  0  0
 14 15  1  0  0  0  0
 15 16  2  0  0  0  0
 16 17  1  0  0  0  0
 18 19  1  0  0  0  0
 20 21  1  1  0  0  0
 20 22  1  0  0  0  0
 22 23  1  0  0  0  0
 22 24  1  0  0  0  0
 24 25  1  0  0  0  0
 25 26  2  0  0  0  0
 27 26  1  0  0  0  0
 28 27  2  0  0  0  0
 29 28  1  0  0  0  0
 29 34  1  0  0  0  0
 30 29  2  0  0  0  0
 31 32  2  0  0  0  0
 31 30  1  0  0  0  0
 32 33  1  0  0  0  0
 33 24  2  0  0  0  0
 33 28  1  0  0  0  0
 34 36  2  0  0  0  0
 35 37  1  0  0  0  0
 35 34  1  0  0  0  0
 38 35  1  0  0  0  0
M  END
>  <minimizedAffinity>
-7.23505783

$$$$
