
 OpenBabel10152419573D

 38 41  0  0  1  0  0  0  0  0999 V2000
    1.0520  -11.0990  -24.8600 C   0  0  0  0  0  0  0  0  0  0  0  0
    0.5880  -11.4420  -26.1300 C   0  0  0  0  0  3  0  0  0  0  0  0
   -0.7560  -11.2740  -26.4570 C   0  0  0  0  0  3  0  0  0  0  0  0
   -1.6270  -10.6760  -25.5460 C   0  0  0  0  0  3  0  0  0  0  0  0
   -1.1680  -10.2500  -24.2880 C   0  0  0  0  0  0  0  0  0  0  0  0
    0.1690  -10.5370  -23.9270 C   0  0  0  0  0  3  0  0  0  0  0  0
    3.4470  -11.2880  -25.5680 C   0  0  0  0  0  0  0  0  0  0  0  0
    4.4100  -12.0220  -25.3670 O   0  0  0  0  0  0  0  0  0  0  0  0
    2.4400  -11.1680  -24.6420 N   0  0  0  0  0  0  0  0  0  0  0  0
    2.7370  -11.3510  -23.6900 H   0  0  0  0  0  0  0  0  0  0  0  0
    3.9820   -8.4310  -28.6980 C   0  0  0  0  0  0  0  0  0  0  0  0
    4.3700   -9.7600  -28.8870 C   0  0  0  0  0  3  0  0  0  0  0  0
    4.1270  -10.7110  -27.8920 C   0  0  0  0  0  3  0  0  0  0  0  0
    3.4890  -10.3340  -26.7040 C   0  0  0  0  0  0  0  0  0  0  0  0
    3.1120   -9.0000  -26.5090 C   0  0  0  0  0  3  0  0  0  0  0  0
    3.3680   -8.0580  -27.5010 C   0  0  0  0  0  0  0  0  0  0  0  0
    3.0840   -6.7730  -27.2390 F   0  0  0  0  0  0  0  0  0  0  0  0
    3.9650   -8.0110  -30.9830 C   0  0  0  0  0  1  0  0  0  0  0  0
    4.3390   -7.5510  -29.6840 O   0  0  0  0  0  0  0  0  0  0  0  0
   -2.0400   -9.3760  -23.3780 C   0  0  1  0  0  3  0  0  0  0  0  0
   -1.3130   -9.0850  -22.0620 C   0  0  0  0  0  1  0  0  0  0  0  0
   -2.4040   -8.1090  -24.0100 N   0  0  0  0  0  0  0  0  0  0  0  0
   -3.3750   -7.8430  -24.0290 H   0  0  0  0  0  0  0  0  0  0  0  0
   -1.4250   -7.1140  -23.9500 C   0  0  0  0  0  0  0  0  0  0  0  0
   -1.3500   -6.4180  -22.8040 N   0  0  0  0  0  0  0  0  0  0  0  0
   -0.8510   -5.1890  -22.8900 C   0  0  0  0  0  3  0  0  0  0  0  0
   -0.5400   -4.5690  -24.0270 N   0  0  0  0  0  0  0  0  0  0  0  0
   -0.5430   -5.3060  -25.1570 C   0  0  0  0  0  0  0  0  0  0  0  0
   -0.3470   -4.7490  -26.4220 C   0  0  0  0  0  0  0  0  0  0  0  0
   -0.1540   -5.5140  -27.5840 C   0  0  0  0  0  3  0  0  0  0  0  0
   -0.2460   -6.8920  -27.5100 C   0  0  0  0  0  3  0  0  0  0  0  0
   -0.6520   -7.4630  -26.3100 C   0  0  0  0  0  3  0  0  0  0  0  0
   -0.8390   -6.6680  -25.1430 C   0  0  0  0  0  0  0  0  0  0  0  0
   -0.6750   -3.3200  -26.6050 C   0  0  0  0  0  0  0  0  0  0  0  0
    0.2320   -2.6620  -27.4070 N   0  0  0  0  0  0  0  0  0  0  0  0
   -1.6310   -2.7820  -26.1040 O   0  0  0  0  0  0  0  0  0  0  0  0
    0.0470   -1.6950  -27.6390 H   0  0  0  0  0  0  0  0  0  0  0  0
    1.0200   -3.1240  -27.8390 H   0  0  0  0  0  0  0  0  0  0  0  0
  1  9  1  0  0  0  0
  1  6  1  0  0  0  0
  2  1  2  0  0  0  0
  3  2  1  0  0  0  0
  3  4  2  0  0  0  0
  4  5  1  0  0  0  0
  5  6  2  0  0  0  0
  5 20  1  0  0  0  0
  7  8  2  0  0  0  0
  7  9  1  0  0  0  0
  9 10  1  0  0  0  0
 11 16  1  0  0  0  0
 12 11  2  0  0  0  0
 12 13  1  0  0  0  0
 13 14  2  0  0  0  0
 14 15  1  0  0  0  0
 14  7  1  0  0  0  0
 16 17  1  0  0  0  0
 16 15  2  0  0  0  0
 18 19  1  0  0  0  0
 19 11  1  0  0  0  0
 20 21  1  1  0  0  0
 22 24  1  0  0  0  0
 22 20  1  0  0  0  0
 23 22  1  0  0  0  0
 24 25  1  0  0  0  0
 26 25  2  0  0  0  0
 27 26  1  0  0  0  0
 28 33  1  0  0  0  0
 28 27  2  0  0  0  0
 29 28  1  0  0  0  0
 30 31  1  0  0  0  0
 30 29  2  0  0  0  0
 31 32  2  0  0  0  0
 32 33  1  0  0  0  0
 33 24  2  0  0  0  0
 34 29  1  0  0  0  0
 34 36  2  0  0  0  0
 35 34  1  0  0  0  0
 37 35  1  0  0  0  0
 38 35  1  0  0  0  0
M  END
>  <minimizedAffinity>
-8.65341091

$$$$
