
 OpenBabel10152419573D

 38 41  0  0  1  0  0  0  0  0999 V2000
    4.1470  -10.0860  -27.1270 C   0  0  0  0  0  0  0  0  0  0  0  0
    3.9810  -10.8220  -28.3010 C   0  0  0  0  0  3  0  0  0  0  0  0
    3.3740  -12.0750  -28.2660 C   0  0  0  0  0  3  0  0  0  0  0  0
    2.8460  -12.5620  -27.0690 C   0  0  0  0  0  3  0  0  0  0  0  0
    2.9300  -11.8060  -25.8880 C   0  0  0  0  0  0  0  0  0  0  0  0
    3.6550  -10.5930  -25.9160 C   0  0  0  0  0  3  0  0  0  0  0  0
    4.0570   -7.6940  -27.8630 C   0  0  0  0  0  0  0  0  0  0  0  0
    4.7160   -6.9170  -28.5490 O   0  0  0  0  0  0  0  0  0  0  0  0
    4.6430   -8.7760  -27.2540 N   0  0  0  0  0  0  0  0  0  0  0  0
    5.6290   -8.6480  -27.0560 H   0  0  0  0  0  0  0  0  0  0  0  0
    0.2390   -6.2470  -26.6080 C   0  0  0  0  0  0  0  0  0  0  0  0
    0.7070   -5.9680  -27.8940 C   0  0  0  0  0  3  0  0  0  0  0  0
    1.9220   -6.5030  -28.3310 C   0  0  0  0  0  3  0  0  0  0  0  0
    2.6710   -7.3250  -27.4810 C   0  0  0  0  0  0  0  0  0  0  0  0
    2.2090   -7.5950  -26.1870 C   0  0  0  0  0  3  0  0  0  0  0  0
    1.0030   -7.0480  -25.7580 C   0  0  0  0  0  0  0  0  0  0  0  0
    0.6410   -7.2450  -24.4810 F   0  0  0  0  0  0  0  0  0  0  0  0
   -0.6780   -4.2670  -25.8100 C   0  0  0  0  0  1  0  0  0  0  0  0
   -0.9130   -5.6100  -26.2330 O   0  0  0  0  0  0  0  0  0  0  0  0
    2.1480  -12.2070  -24.6300 C   0  0  1  0  0  3  0  0  0  0  0  0
    3.0600  -12.9490  -23.6490 C   0  0  0  0  0  1  0  0  0  0  0  0
    1.5600  -11.0520  -23.9530 N   0  0  0  0  0  0  0  0  0  0  0  0
    2.1610  -10.2830  -23.7060 H   0  0  0  0  0  0  0  0  0  0  0  0
    0.2220  -10.8000  -24.2650 C   0  0  0  0  0  0  0  0  0  0  0  0
   -0.0560  -10.5670  -25.5590 N   0  0  0  0  0  0  0  0  0  0  0  0
   -1.1330   -9.8310  -25.8090 C   0  0  0  0  0  3  0  0  0  0  0  0
   -1.8710   -9.2180  -24.8850 N   0  0  0  0  0  0  0  0  0  0  0  0
   -1.6300   -9.5260  -23.5940 C   0  0  0  0  0  0  0  0  0  0  0  0
   -2.2560   -8.8710  -22.5320 C   0  0  0  0  0  0  0  0  0  0  0  0
   -2.1690   -9.3000  -21.1970 C   0  0  0  0  0  3  0  0  0  0  0  0
   -1.3560  -10.3740  -20.8830 C   0  0  0  0  0  3  0  0  0  0  0  0
   -0.5560  -10.9110  -21.8840 C   0  0  0  0  0  3  0  0  0  0  0  0
   -0.6630  -10.4620  -23.2320 C   0  0  0  0  0  0  0  0  0  0  0  0
   -2.7560   -7.5010  -22.7660 C   0  0  0  0  0  0  0  0  0  0  0  0
   -4.0610   -7.4770  -23.2100 N   0  0  0  0  0  0  0  0  0  0  0  0
   -2.0960   -6.5060  -22.5930 O   0  0  0  0  0  0  0  0  0  0  0  0
   -4.5050   -6.5760  -23.3330 H   0  0  0  0  0  0  0  0  0  0  0  0
   -4.6150   -8.3130  -23.3340 H   0  0  0  0  0  0  0  0  0  0  0  0
  1  6  1  0  0  0  0
  2  3  1  0  0  0  0
  2  1  2  0  0  0  0
  3  4  2  0  0  0  0
  4  5  1  0  0  0  0
  5 20  1  0  0  0  0
  6  5  2  0  0  0  0
  7 14  1  0  0  0  0
  7  9  1  0  0  0  0
  8  7  2  0  0  0  0
  9  1  1  0  0  0  0
  9 10  1  0  0  0  0
 11 19  1  0  0  0  0
 11 16  1  0  0  0  0
 12 11  2  0  0  0  0
 13 12  1  0  0  0  0
 13 14  2  0  0  0  0
 14 15  1  0  0  0  0
 15 16  2  0  0  0  0
 16 17  1  0  0  0  0
 19 18  1  0  0  0  0
 20 22  1  0  0  0  0
 20 21  1  1  0  0  0
 22 23  1  0  0  0  0
 24 22  1  0  0  0  0
 24 33  1  0  0  0  0
 25 24  2  0  0  0  0
 26 25  1  0  0  0  0
 26 27  2  0  0  0  0
 27 28  1  0  0  0  0
 28 33  2  0  0  0  0
 28 29  1  0  0  0  0
 29 30  2  0  0  0  0
 30 31  1  0  0  0  0
 32 31  2  0  0  0  0
 33 32  1  0  0  0  0
 34 36  2  0  0  0  0
 34 29  1  0  0  0  0
 35 34  1  0  0  0  0
 37 35  1  0  0  0  0
 38 35  1  0  0  0  0
M  END
>  <minimizedAffinity>
-9.41726017

$$$$
