
 OpenBabel10152419573D

 38 41  0  0  1  0  0  0  0  0999 V2000
    1.2850  -12.9230  -24.1290 C   0  0  0  0  0  0  0  0  0  0  0  0
    2.1320  -12.9580  -23.0200 C   0  0  0  0  0  3  0  0  0  0  0  0
    3.5060  -12.7950  -23.1790 C   0  0  0  0  0  3  0  0  0  0  0  0
    4.0340  -12.5050  -24.4380 C   0  0  0  0  0  3  0  0  0  0  0  0
    3.1940  -12.3870  -25.5590 C   0  0  0  0  0  0  0  0  0  0  0  0
    1.8190  -12.6740  -25.4010 C   0  0  0  0  0  3  0  0  0  0  0  0
   -0.8800  -12.0240  -23.2490 C   0  0  0  0  0  0  0  0  0  0  0  0
   -1.7670  -12.3590  -22.4690 O   0  0  0  0  0  0  0  0  0  0  0  0
   -0.0990  -12.9590  -23.8820 N   0  0  0  0  0  0  0  0  0  0  0  0
   -0.5540  -13.8580  -24.0000 H   0  0  0  0  0  0  0  0  0  0  0  0
   -1.1410   -7.9560  -24.5290 C   0  0  0  0  0  0  0  0  0  0  0  0
   -1.0110   -8.2580  -23.1720 C   0  0  0  0  0  3  0  0  0  0  0  0
   -0.8510   -9.5840  -22.7580 C   0  0  0  0  0  3  0  0  0  0  0  0
   -0.8150  -10.6130  -23.7060 C   0  0  0  0  0  0  0  0  0  0  0  0
   -0.9590  -10.3130  -25.0670 C   0  0  0  0  0  3  0  0  0  0  0  0
   -1.1300   -8.9910  -25.4670 C   0  0  0  0  0  0  0  0  0  0  0  0
   -1.3630   -8.7510  -26.7660 F   0  0  0  0  0  0  0  0  0  0  0  0
   -0.6360   -5.7480  -24.0160 C   0  0  0  0  0  1  0  0  0  0  0  0
   -1.3840   -6.6450  -24.8370 O   0  0  0  0  0  0  0  0  0  0  0  0
    3.7180  -11.8310  -26.8890 C   0  0  1  0  0  3  0  0  0  0  0  0
    3.8710  -12.9580  -27.9140 C   0  0  0  0  0  1  0  0  0  0  0  0
    2.8390  -10.8020  -27.4420 N   0  0  0  0  0  0  0  0  0  0  0  0
    1.9410  -11.0790  -27.8010 H   0  0  0  0  0  0  0  0  0  0  0  0
    2.9860   -9.5310  -26.8800 C   0  0  0  0  0  0  0  0  0  0  0  0
    2.6700   -9.4140  -25.5790 N   0  0  0  0  0  0  0  0  0  0  0  0
    2.2890   -8.2090  -25.1690 C   0  0  0  0  0  3  0  0  0  0  0  0
    2.0860   -7.1610  -25.9650 N   0  0  0  0  0  0  0  0  0  0  0  0
    2.4830   -7.2700  -27.2490 C   0  0  0  0  0  0  0  0  0  0  0  0
    2.2240   -6.2880  -28.2060 C   0  0  0  0  0  0  0  0  0  0  0  0
    2.7900   -6.2890  -29.4920 C   0  0  0  0  0  3  0  0  0  0  0  0
    3.5810   -7.3530  -29.8820 C   0  0  0  0  0  3  0  0  0  0  0  0
    3.6830   -8.4470  -29.0300 C   0  0  0  0  0  3  0  0  0  0  0  0
    3.1030   -8.4230  -27.7300 C   0  0  0  0  0  0  0  0  0  0  0  0
    1.0670   -5.3960  -27.9830 C   0  0  0  0  0  0  0  0  0  0  0  0
   -0.0740   -6.0800  -27.6230 N   0  0  0  0  0  0  0  0  0  0  0  0
    1.1100   -4.1960  -28.1070 O   0  0  0  0  0  0  0  0  0  0  0  0
   -0.8970   -5.5410  -27.3870 H   0  0  0  0  0  0  0  0  0  0  0  0
   -0.0980   -7.0830  -27.5020 H   0  0  0  0  0  0  0  0  0  0  0  0
  1  9  1  0  0  0  0
  1  2  1  0  0  0  0
  3  2  2  0  0  0  0
  4  3  1  0  0  0  0
  5  6  1  0  0  0  0
  5  4  2  0  0  0  0
  6  1  2  0  0  0  0
  7  8  2  0  0  0  0
  9  7  1  0  0  0  0
 10  9  1  0  0  0  0
 11 12  1  0  0  0  0
 12 13  2  0  0  0  0
 14  7  1  0  0  0  0
 14 13  1  0  0  0  0
 15 14  2  0  0  0  0
 16 15  1  0  0  0  0
 16 11  2  0  0  0  0
 17 16  1  0  0  0  0
 19 11  1  0  0  0  0
 19 18  1  0  0  0  0
 20 21  1  6  0  0  0
 20  5  1  0  0  0  0
 22 20  1  0  0  0  0
 22 24  1  0  0  0  0
 23 22  1  0  0  0  0
 24 25  1  0  0  0  0
 25 26  2  0  0  0  0
 27 26  1  0  0  0  0
 28 27  2  0  0  0  0
 29 34  1  0  0  0  0
 29 28  1  0  0  0  0
 30 29  2  0  0  0  0
 31 30  1  0  0  0  0
 31 32  2  0  0  0  0
 32 33  1  0  0  0  0
 33 28  1  0  0  0  0
 33 24  2  0  0  0  0
 34 35  1  0  0  0  0
 35 38  1  0  0  0  0
 35 37  1  0  0  0  0
 36 34  2  0  0  0  0
M  END
>  <minimizedAffinity>
-7.28949499

$$$$
