REMARK  Name = 
REMARK  9 active torsions:
REMARK  status: ('A' for Active; 'I' for Inactive)
REMARK    1  A    between atoms: C_1  and  O_2
REMARK    2  A    between atoms: O_2  and  C_3
REMARK    3  A    between atoms: C_6  and  C_7
REMARK    4  A    between atoms: N_9  and  C_10
REMARK    5  A    between atoms: C_14  and  C_15
REMARK    6  A    between atoms: C_15  and  C_16
REMARK    7  A    between atoms: C_15  and  N_17
REMARK    8  A    between atoms: N_17  and  C_18
REMARK    9  A    between atoms: C_23  and  C_24
REMARK                            x       y       z     vdW  Elec       q    Type
REMARK                         _______ _______ _______ _____ _____    ______ ____
ROOT
ATOM      1  C   UNL     1       4.623   4.261   2.708  0.00  0.00    +0.034 A 
ATOM      2  C   UNL     1       5.683   3.711   3.430  0.00  0.00    +0.023 A 
ATOM      3  C   UNL     1       6.822   3.255   2.770  0.00  0.00    +0.002 A 
ATOM      4  C   UNL     1       6.947   3.429   1.391  0.00  0.00    +0.005 A 
ATOM      5  C   UNL     1       5.927   4.051   0.651  0.00  0.00    -0.026 A 
ATOM      6  C   UNL     1       4.729   4.398   1.317  0.00  0.00    +0.028 A 
ENDROOT
BRANCH   1   9
ATOM      7  C   UNL     1       2.287   5.103   3.033  0.00  0.00    +0.248 C 
ATOM      8  O   UNL     1       1.721   6.138   3.374  0.00  0.00    -0.270 OA
ATOM      9  N   UNL     1       3.566   4.823   3.446  0.00  0.00    -0.281 N 
ATOM     10  H   UNL     1       3.815   5.261   4.326  0.00  0.00    +0.155 HD
BRANCH   7  14
ATOM     11  C   UNL     1      -0.296   2.085   1.461  0.00  0.00    +0.155 A 
ATOM     12  C   UNL     1      -0.408   3.405   1.018  0.00  0.00    +0.049 A 
ATOM     13  C   UNL     1       0.485   4.378   1.476  0.00  0.00    +0.017 A 
ATOM     14  C   UNL     1       1.498   4.030   2.377  0.00  0.00    +0.040 A 
ATOM     15  C   UNL     1       1.603   2.710   2.832  0.00  0.00    +0.055 A 
ATOM     16  C   UNL     1       0.702   1.751   2.379  0.00  0.00    +0.165 A 
ATOM     17  F   UNL     1       0.770   0.521   2.911  0.00  0.00    -0.202 F 
BRANCH  11  19
ATOM     18  C   UNL     1      -0.717   0.031   0.461  0.00  0.00    +0.277 C 
ATOM     19  O   UNL     1      -1.265   1.219   1.032  0.00  0.00    -0.492 OA
ENDBRANCH  11  19
ENDBRANCH   7  14
ENDBRANCH   1   9
BRANCH   5  20
ATOM     20  C   UNL     1       6.147   4.471  -0.808  0.00  0.00    +0.099 C 
ATOM     21  C   UNL     1       7.298   5.477  -0.905  0.00  0.00    +0.033 C 
BRANCH  20  22
ATOM     22  N   UNL     1       6.439   3.330  -1.674  0.00  0.00    -0.322 N 
ATOM     23  H   UNL     1       7.366   2.938  -1.656  0.00  0.00    +0.148 HD
BRANCH  22  24
ATOM     24  C   UNL     1       5.351   2.496  -1.943  0.00  0.00    +0.130 A 
ATOM     25  N   UNL     1       4.187   3.105  -2.226  0.00  0.00    -0.220 NA
ATOM     26  C   UNL     1       3.081   2.418  -1.962  0.00  0.00    +0.223 A 
ATOM     27  N   UNL     1       3.043   1.242  -1.337  0.00  0.00    -0.235 NA
ATOM     28  C   UNL     1       4.216   0.609  -1.134  0.00  0.00    +0.088 A 
ATOM     29  C   UNL     1       4.320  -0.570  -0.394  0.00  0.00    +0.063 A 
ATOM     30  C   UNL     1       5.489  -1.346  -0.331  0.00  0.00    +0.015 A 
ATOM     31  C   UNL     1       6.636  -0.894  -0.958  0.00  0.00    +0.002 A 
ATOM     32  C   UNL     1       6.623   0.377  -1.521  0.00  0.00    +0.013 A 
ATOM     33  C   UNL     1       5.425   1.145  -1.575  0.00  0.00    +0.041 A 
BRANCH  29  34
ATOM     34  C   UNL     1       3.278  -0.843   0.618  0.00  0.00    +0.244 C 
ATOM     35  N   UNL     1       3.702  -0.586   1.904  0.00  0.00    -0.325 N 
ATOM     36  O   UNL     1       2.175  -1.253   0.352  0.00  0.00    -0.270 OA
ATOM     37  H   UNL     1       3.030  -0.683   2.654  0.00  0.00    +0.145 HD
ATOM     38  H   UNL     1       4.621  -0.224   2.118  0.00  0.00    +0.145 HD
ENDBRANCH  29  34
ENDBRANCH  22  24
ENDBRANCH  20  22
ENDBRANCH   5  20
TORSDOF 7
