
 OpenBabel10152419483D

 37 40  0  0  0  0  0  0  0  0999 V2000
    3.8920  -10.7440  -27.6220 C   0  0  0  0  0  0  0  0  0  0  0  0
    4.7210  -11.1950  -26.5950 C   0  0  0  0  0  3  0  0  0  0  0  0
    4.1740  -11.8820  -25.5160 C   0  0  0  0  0  3  0  0  0  0  0  0
    2.8040  -12.1440  -25.4810 C   0  0  0  0  0  3  0  0  0  0  0  0
    1.9660  -11.8050  -26.5550 C   0  0  0  0  0  0  0  0  0  0  0  0
    2.5390  -11.1150  -27.6330 C   0  0  0  0  0  3  0  0  0  0  0  0
    4.1020   -8.6260  -28.9780 C   0  0  0  0  0  0  0  0  0  0  0  0
    4.5870   -8.1220  -29.9890 O   0  0  0  0  0  0  0  0  0  0  0  0
    4.4690   -9.8970  -28.5850 N   0  0  0  0  0  0  0  0  0  0  0  0
    5.3190  -10.2130  -29.0380 H   0  0  0  0  0  0  0  0  0  0  0  0
    1.2020   -6.4390  -26.6420 C   0  0  0  0  0  0  0  0  0  0  0  0
    1.4690   -6.1270  -27.9890 C   0  0  0  0  0  3  0  0  0  0  0  0
    2.4450   -6.8030  -28.7360 C   0  0  0  0  0  3  0  0  0  0  0  0
    3.1830   -7.8200  -28.1420 C   0  0  0  0  0  0  0  0  0  0  0  0
    3.0210   -8.0820  -26.7800 C   0  0  0  0  0  3  0  0  0  0  0  0
    2.0320   -7.4100  -26.0540 C   0  0  0  0  0  3  0  0  0  0  0  0
    0.0430   -6.0210  -24.4930 C   0  0  0  0  0  1  0  0  0  0  0  0
    0.1740   -5.8280  -25.9330 N   0  0  0  0  0  0  0  0  0  0  0  0
   -0.9280   -5.1700  -26.6240 C   0  0  0  0  0  1  0  0  0  0  0  0
    0.4710  -12.0910  -26.5280 C   0  0  0  0  0  2  0  0  0  0  0  0
   -0.0410  -12.2440  -25.1740 N   0  0  0  0  0  0  0  0  0  0  0  0
    0.4710  -12.8200  -24.5290 H   0  0  0  0  0  0  0  0  0  0  0  0
   -0.9660  -11.3180  -24.7100 C   0  0  0  0  0  0  0  0  0  0  0  0
   -1.3510  -10.3650  -25.5780 N   0  0  0  0  0  0  0  0  0  0  0  0
   -1.9180   -9.2760  -25.0620 C   0  0  0  0  0  3  0  0  0  0  0  0
   -2.0450   -9.0130  -23.7620 N   0  0  0  0  0  0  0  0  0  0  0  0
   -1.7080   -9.9880  -22.8950 C   0  0  0  0  0  0  0  0  0  0  0  0
   -1.7560   -9.7870  -21.5120 C   0  0  0  0  0  0  0  0  0  0  0  0
   -1.5180  -10.8050  -20.5770 C   0  0  0  0  0  3  0  0  0  0  0  0
   -1.1580  -12.0640  -21.0250 C   0  0  0  0  0  3  0  0  0  0  0  0
   -0.9810  -12.2670  -22.3900 C   0  0  0  0  0  3  0  0  0  0  0  0
   -1.2370  -11.2330  -23.3320 C   0  0  0  0  0  0  0  0  0  0  0  0
   -1.8880   -8.4240  -20.9760 C   0  0  0  0  0  0  0  0  0  0  0  0
   -1.2380   -7.4630  -21.7040 N   0  0  0  0  0  0  0  0  0  0  0  0
   -2.4370   -8.1910  -19.9100 O   0  0  0  0  0  0  0  0  0  0  0  0
   -1.2610   -6.5080  -21.3710 H   0  0  0  0  0  0  0  0  0  0  0  0
   -0.7510   -7.6680  -22.5660 H   0  0  0  0  0  0  0  0  0  0  0  0
  1  2  1  0  0  0  0
  2  3  2  0  0  0  0
  3  4  1  0  0  0  0
  5 20  1  0  0  0  0
  5  4  2  0  0  0  0
  6  1  2  0  0  0  0
  6  5  1  0  0  0  0
  7  9  1  0  0  0  0
  7 14  1  0  0  0  0
  8  7  2  0  0  0  0
  9  1  1  0  0  0  0
 10  9  1  0  0  0  0
 11 16  1  0  0  0  0
 11 18  1  0  0  0  0
 12 11  2  0  0  0  0
 13 14  2  0  0  0  0
 13 12  1  0  0  0  0
 14 15  1  0  0  0  0
 15 16  2  0  0  0  0
 18 17  1  0  0  0  0
 19 18  1  0  0  0  0
 20 21  1  0  0  0  0
 21 23  1  0  0  0  0
 21 22  1  0  0  0  0
 23 32  1  0  0  0  0
 24 25  1  0  0  0  0
 24 23  2  0  0  0  0
 25 26  2  0  0  0  0
 26 27  1  0  0  0  0
 27 28  1  0  0  0  0
 28 33  1  0  0  0  0
 28 29  2  0  0  0  0
 30 29  1  0  0  0  0
 31 30  2  0  0  0  0
 32 27  2  0  0  0  0
 32 31  1  0  0  0  0
 33 35  2  0  0  0  0
 34 36  1  0  0  0  0
 34 33  1  0  0  0  0
 37 34  1  0  0  0  0
M  END
>  <minimizedAffinity>
-9.0097332

$$$$

 OpenBabel10152419483D

 37 40  0  0  0  0  0  0  0  0999 V2000
    3.5870  -11.1260  -26.6230 C   0  0  0  0  0  0  0  0  0  0  0  0
    4.2660  -11.8610  -25.6510 C   0  0  0  0  0  3  0  0  0  0  0  0
    3.5510  -12.6600  -24.7650 C   0  0  0  0  0  3  0  0  0  0  0  0
    2.1630  -12.7470  -24.8710 C   0  0  0  0  0  3  0  0  0  0  0  0
    1.4670  -12.1100  -25.9100 C   0  0  0  0  0  0  0  0  0  0  0  0
    2.2070  -11.3120  -26.7940 C   0  0  0  0  0  3  0  0  0  0  0  0
    4.0280   -8.9030  -27.7350 C   0  0  0  0  0  0  0  0  0  0  0  0
    4.7130   -8.3130  -28.5680 O   0  0  0  0  0  0  0  0  0  0  0  0
    4.3380  -10.1950  -27.3630 N   0  0  0  0  0  0  0  0  0  0  0  0
    5.2800  -10.4610  -27.6310 H   0  0  0  0  0  0  0  0  0  0  0  0
    0.9790   -6.5980  -25.7250 C   0  0  0  0  0  0  0  0  0  0  0  0
    1.7790   -7.5390  -25.0460 C   0  0  0  0  0  3  0  0  0  0  0  0
    2.7350   -8.3240  -25.7050 C   0  0  0  0  0  3  0  0  0  0  0  0
    2.9160   -8.1810  -27.0760 C   0  0  0  0  0  0  0  0  0  0  0  0
    2.0680   -7.3380  -27.7970 C   0  0  0  0  0  3  0  0  0  0  0  0
    1.1300   -6.5500  -27.1220 C   0  0  0  0  0  3  0  0  0  0  0  0
   -0.5660   -4.6630  -25.7500 C   0  0  0  0  0  1  0  0  0  0  0  0
    0.0960   -5.7600  -25.0540 N   0  0  0  0  0  0  0  0  0  0  0  0
   -0.0240   -5.8020  -23.6020 C   0  0  0  0  0  1  0  0  0  0  0  0
   -0.0480  -12.2030  -26.0370 C   0  0  0  0  0  2  0  0  0  0  0  0
   -0.6830  -12.6350  -24.8010 N   0  0  0  0  0  0  0  0  0  0  0  0
   -0.8230  -13.6200  -24.6510 H   0  0  0  0  0  0  0  0  0  0  0  0
   -0.7220  -11.7470  -23.7340 C   0  0  0  0  0  0  0  0  0  0  0  0
   -0.5530  -12.2730  -22.5070 N   0  0  0  0  0  0  0  0  0  0  0  0
   -0.9570  -11.5340  -21.4760 C   0  0  0  0  0  3  0  0  0  0  0  0
   -1.6000  -10.3700  -21.5650 N   0  0  0  0  0  0  0  0  0  0  0  0
   -1.7220   -9.8190  -22.7880 C   0  0  0  0  0  0  0  0  0  0  0  0
   -2.4260   -8.6270  -22.9880 C   0  0  0  0  0  0  0  0  0  0  0  0
   -2.4860   -7.9660  -24.2230 C   0  0  0  0  0  3  0  0  0  0  0  0
   -1.8740   -8.5360  -25.3260 C   0  0  0  0  0  3  0  0  0  0  0  0
   -1.2700   -9.7820  -25.1910 C   0  0  0  0  0  3  0  0  0  0  0  0
   -1.2020  -10.4390  -23.9310 C   0  0  0  0  0  0  0  0  0  0  0  0
   -3.2970   -8.1060  -21.9230 C   0  0  0  0  0  0  0  0  0  0  0  0
   -2.6400   -7.7620  -20.7720 N   0  0  0  0  0  0  0  0  0  0  0  0
   -4.5140   -8.0900  -22.0240 O   0  0  0  0  0  0  0  0  0  0  0  0
   -3.1840   -7.4290  -19.9880 H   0  0  0  0  0  0  0  0  0  0  0  0
   -1.6340   -7.8150  -20.6800 H   0  0  0  0  0  0  0  0  0  0  0  0
  1  2  1  0  0  0  0
  2  3  2  0  0  0  0
  4  3  1  0  0  0  0
  5  4  2  0  0  0  0
  6  1  2  0  0  0  0
  6  5  1  0  0  0  0
  7  9  1  0  0  0  0
  7 14  1  0  0  0  0
  8  7  2  0  0  0  0
  9  1  1  0  0  0  0
 10  9  1  0  0  0  0
 11 18  1  0  0  0  0
 11 12  1  0  0  0  0
 13 12  2  0  0  0  0
 14 13  1  0  0  0  0
 15 16  1  0  0  0  0
 15 14  2  0  0  0  0
 16 11  2  0  0  0  0
 17 18  1  0  0  0  0
 18 19  1  0  0  0  0
 20  5  1  0  0  0  0
 20 21  1  0  0  0  0
 21 22  1  0  0  0  0
 21 23  1  0  0  0  0
 23 24  1  0  0  0  0
 24 25  2  0  0  0  0
 26 25  1  0  0  0  0
 27 26  2  0  0  0  0
 28 27  1  0  0  0  0
 28 33  1  0  0  0  0
 29 28  2  0  0  0  0
 30 31  2  0  0  0  0
 30 29  1  0  0  0  0
 31 32  1  0  0  0  0
 32 23  2  0  0  0  0
 32 27  1  0  0  0  0
 33 34  1  0  0  0  0
 34 37  1  0  0  0  0
 34 36  1  0  0  0  0
 35 33  2  0  0  0  0
M  END
>  <minimizedAffinity>
-8.85684204

$$$$

 OpenBabel10152419483D

 37 40  0  0  0  0  0  0  0  0999 V2000
   -1.2220   -9.9980  -23.8740 C   0  0  0  0  0  0  0  0  0  0  0  0
   -1.9480  -10.2830  -25.0310 C   0  0  0  0  0  3  0  0  0  0  0  0
   -1.3440  -10.9790  -26.0730 C   0  0  0  0  0  3  0  0  0  0  0  0
   -0.0250  -11.4160  -25.9430 C   0  0  0  0  0  3  0  0  0  0  0  0
    0.6890  -11.2450  -24.7480 C   0  0  0  0  0  0  0  0  0  0  0  0
    0.0600  -10.5430  -23.7090 C   0  0  0  0  0  3  0  0  0  0  0  0
   -1.7720   -7.7570  -22.8520 C   0  0  0  0  0  0  0  0  0  0  0  0
   -2.1720   -7.1830  -21.8410 O   0  0  0  0  0  0  0  0  0  0  0  0
   -1.8190   -9.1330  -22.9400 N   0  0  0  0  0  0  0  0  0  0  0  0
   -2.4310   -9.5450  -22.2450 H   0  0  0  0  0  0  0  0  0  0  0  0
   -0.2180   -5.5890  -26.2480 C   0  0  0  0  0  0  0  0  0  0  0  0
    0.2690   -5.3860  -24.9420 C   0  0  0  0  0  3  0  0  0  0  0  0
   -0.2670   -6.0520  -23.8310 C   0  0  0  0  0  3  0  0  0  0  0  0
   -1.3140   -6.9480  -24.0060 C   0  0  0  0  0  0  0  0  0  0  0  0
   -1.8930   -7.0930  -25.2680 C   0  0  0  0  0  3  0  0  0  0  0  0
   -1.3360   -6.4330  -26.3700 C   0  0  0  0  0  3  0  0  0  0  0  0
    1.3830   -5.7060  -28.1350 C   0  0  0  0  0  1  0  0  0  0  0  0
    0.3750   -4.9950  -27.3570 N   0  0  0  0  0  0  0  0  0  0  0  0
    0.1840   -3.5780  -27.6420 C   0  0  0  0  0  1  0  0  0  0  0  0
    2.1270  -11.7240  -24.5960 C   0  0  0  0  0  2  0  0  0  0  0  0
    2.8270  -11.7900  -25.8700 N   0  0  0  0  0  0  0  0  0  0  0  0
    2.6510  -12.5740  -26.4750 H   0  0  0  0  0  0  0  0  0  0  0  0
    3.3960  -10.6270  -26.3710 C   0  0  0  0  0  0  0  0  0  0  0  0
    3.1620   -9.4960  -25.6810 N   0  0  0  0  0  0  0  0  0  0  0  0
    3.3620   -8.3470  -26.3240 C   0  0  0  0  0  3  0  0  0  0  0  0
    3.6760   -8.2280  -27.6140 N   0  0  0  0  0  0  0  0  0  0  0  0
    3.9600   -9.3570  -28.2910 C   0  0  0  0  0  0  0  0  0  0  0  0
    4.2470   -9.3380  -29.6590 C   0  0  0  0  0  0  0  0  0  0  0  0
    4.6530  -10.4720  -30.3770 C   0  0  0  0  0  3  0  0  0  0  0  0
    4.7220  -11.6940  -29.7300 C   0  0  0  0  0  3  0  0  0  0  0  0
    4.3240  -11.7730  -28.3990 C   0  0  0  0  0  3  0  0  0  0  0  0
    3.9270  -10.6150  -27.6750 C   0  0  0  0  0  0  0  0  0  0  0  0
    3.9560   -8.1320  -30.4500 C   0  0  0  0  0  0  0  0  0  0  0  0
    4.6530   -7.0180  -30.0620 N   0  0  0  0  0  0  0  0  0  0  0  0
    3.0830   -8.1060  -31.3040 O   0  0  0  0  0  0  0  0  0  0  0  0
    4.4740   -6.1470  -30.5430 H   0  0  0  0  0  0  0  0  0  0  0  0
    5.3460   -7.0370  -29.3270 H   0  0  0  0  0  0  0  0  0  0  0  0
  1  6  1  0  0  0  0
  1  9  1  0  0  0  0
  2  1  2  0  0  0  0
  3  4  2  0  0  0  0
  3  2  1  0  0  0  0
  4  5  1  0  0  0  0
  5 20  1  0  0  0  0
  5  6  2  0  0  0  0
  7  8  2  0  0  0  0
  9  7  1  0  0  0  0
  9 10  1  0  0  0  0
 11 12  1  0  0  0  0
 12 13  2  0  0  0  0
 14 13  1  0  0  0  0
 14  7  1  0  0  0  0
 15 14  2  0  0  0  0
 16 11  2  0  0  0  0
 16 15  1  0  0  0  0
 17 18  1  0  0  0  0
 18 11  1  0  0  0  0
 19 18  1  0  0  0  0
 21 20  1  0  0  0  0
 22 21  1  0  0  0  0
 23 21  1  0  0  0  0
 23 24  1  0  0  0  0
 25 24  2  0  0  0  0
 26 25  1  0  0  0  0
 27 32  1  0  0  0  0
 27 26  2  0  0  0  0
 28 27  1  0  0  0  0
 29 30  1  0  0  0  0
 29 28  2  0  0  0  0
 30 31  2  0  0  0  0
 31 32  1  0  0  0  0
 32 23  2  0  0  0  0
 33 34  1  0  0  0  0
 33 28  1  0  0  0  0
 34 37  1  0  0  0  0
 35 33  2  0  0  0  0
 36 34  1  0  0  0  0
M  END
>  <minimizedAffinity>
-8.55614567

$$$$

 OpenBabel10152419483D

 37 40  0  0  0  0  0  0  0  0999 V2000
    3.1980   -8.8320  -27.0580 C   0  0  0  0  0  0  0  0  0  0  0  0
    3.0130   -7.9570  -25.9880 C   0  0  0  0  0  3  0  0  0  0  0  0
    2.4970   -8.4330  -24.7870 C   0  0  0  0  0  3  0  0  0  0  0  0
    2.1950   -9.7880  -24.6490 C   0  0  0  0  0  3  0  0  0  0  0  0
    2.4790  -10.7100  -25.6690 C   0  0  0  0  0  0  0  0  0  0  0  0
    3.0030  -10.2080  -26.8700 C   0  0  0  0  0  3  0  0  0  0  0  0
    2.9100   -7.2720  -29.0220 C   0  0  0  0  0  0  0  0  0  0  0  0
    3.2290   -7.0550  -30.1890 O   0  0  0  0  0  0  0  0  0  0  0  0
    3.5410   -8.2630  -28.2980 N   0  0  0  0  0  0  0  0  0  0  0  0
    4.4090   -8.5650  -28.7270 H   0  0  0  0  0  0  0  0  0  0  0  0
    0.1070   -4.7750  -26.8880 C   0  0  0  0  0  0  0  0  0  0  0  0
   -0.0190   -6.1770  -26.9310 C   0  0  0  0  0  3  0  0  0  0  0  0
    0.8610   -6.9870  -27.6630 C   0  0  0  0  0  3  0  0  0  0  0  0
    1.9000   -6.4020  -28.3770 C   0  0  0  0  0  0  0  0  0  0  0  0
    1.9910   -5.0110  -28.4450 C   0  0  0  0  0  3  0  0  0  0  0  0
    1.1150   -4.2180  -27.6950 C   0  0  0  0  0  3  0  0  0  0  0  0
   -1.1680   -2.6790  -26.5510 C   0  0  0  0  0  1  0  0  0  0  0  0
   -0.7130   -3.9850  -26.0890 N   0  0  0  0  0  0  0  0  0  0  0  0
   -0.9550   -4.3240  -24.6930 C   0  0  0  0  0  1  0  0  0  0  0  0
    2.1590  -12.1910  -25.5250 C   0  0  0  0  0  2  0  0  0  0  0  0
    0.8520  -12.5320  -26.0670 N   0  0  0  0  0  0  0  0  0  0  0  0
    0.7350  -13.4250  -26.5130 H   0  0  0  0  0  0  0  0  0  0  0  0
   -0.2520  -11.8130  -25.6280 C   0  0  0  0  0  0  0  0  0  0  0  0
   -0.7570  -10.9040  -26.4810 N   0  0  0  0  0  0  0  0  0  0  0  0
   -1.5430   -9.9630  -25.9610 C   0  0  0  0  0  3  0  0  0  0  0  0
   -1.7880   -9.7930  -24.6610 N   0  0  0  0  0  0  0  0  0  0  0  0
   -1.3270  -10.7320  -23.8130 C   0  0  0  0  0  0  0  0  0  0  0  0
   -1.4880  -10.6130  -22.4290 C   0  0  0  0  0  0  0  0  0  0  0  0
   -1.1190  -11.6160  -21.5220 C   0  0  0  0  0  3  0  0  0  0  0  0
   -0.5100  -12.7650  -21.9940 C   0  0  0  0  0  3  0  0  0  0  0  0
   -0.2220  -12.8640  -23.3520 C   0  0  0  0  0  3  0  0  0  0  0  0
   -0.6110  -11.8480  -24.2670 C   0  0  0  0  0  0  0  0  0  0  0  0
   -1.8980   -9.3240  -21.8510 C   0  0  0  0  0  0  0  0  0  0  0  0
   -1.0620   -8.2800  -22.1420 N   0  0  0  0  0  0  0  0  0  0  0  0
   -2.8440   -9.2250  -21.0840 O   0  0  0  0  0  0  0  0  0  0  0  0
   -1.2690   -7.3720  -21.7460 H   0  0  0  0  0  0  0  0  0  0  0  0
   -0.2570   -8.3770  -22.7460 H   0  0  0  0  0  0  0  0  0  0  0  0
  1  6  2  0  0  0  0
  1  2  1  0  0  0  0
  2  3  2  0  0  0  0
  3  4  1  0  0  0  0
  5 20  1  0  0  0  0
  5  4  2  0  0  0  0
  6  5  1  0  0  0  0
  7 14  1  0  0  0  0
  7  9  1  0  0  0  0
  8  7  2  0  0  0  0
  9  1  1  0  0  0  0
 10  9  1  0  0  0  0
 11 18  1  0  0  0  0
 12 11  1  0  0  0  0
 13 12  2  0  0  0  0
 14 13  1  0  0  0  0
 15 14  2  0  0  0  0
 15 16  1  0  0  0  0
 16 11  2  0  0  0  0
 17 18  1  0  0  0  0
 18 19  1  0  0  0  0
 21 23  1  0  0  0  0
 21 20  1  0  0  0  0
 22 21  1  0  0  0  0
 23 32  1  0  0  0  0
 24 25  1  0  0  0  0
 24 23  2  0  0  0  0
 25 26  2  0  0  0  0
 26 27  1  0  0  0  0
 27 28  1  0  0  0  0
 28 33  1  0  0  0  0
 28 29  2  0  0  0  0
 30 29  1  0  0  0  0
 31 30  2  0  0  0  0
 32 27  2  0  0  0  0
 32 31  1  0  0  0  0
 33 35  2  0  0  0  0
 34 33  1  0  0  0  0
 34 36  1  0  0  0  0
 37 34  1  0  0  0  0
M  END
>  <minimizedAffinity>
-8.38185883

$$$$

 OpenBabel10152419483D

 37 40  0  0  0  0  0  0  0  0999 V2000
   -0.3290   -4.6780  -25.4930 C   0  0  0  0  0  0  0  0  0  0  0  0
   -0.5350   -3.3910  -25.9900 C   0  0  0  0  0  3  0  0  0  0  0  0
   -0.0510   -3.0510  -27.2490 C   0  0  0  0  0  3  0  0  0  0  0  0
    0.6110   -4.0070  -28.0200 C   0  0  0  0  0  3  0  0  0  0  0  0
    0.7290   -5.3380  -27.5940 C   0  0  0  0  0  0  0  0  0  0  0  0
    0.2320   -5.6600  -26.3230 C   0  0  0  0  0  3  0  0  0  0  0  0
   -1.0670   -6.0710  -23.5210 C   0  0  0  0  0  0  0  0  0  0  0  0
   -1.5360   -6.0390  -22.3850 O   0  0  0  0  0  0  0  0  0  0  0  0
   -0.6700   -4.9080  -24.1470 N   0  0  0  0  0  0  0  0  0  0  0  0
   -0.5640   -4.1340  -23.5000 H   0  0  0  0  0  0  0  0  0  0  0  0
   -0.4450  -10.0170  -25.1630 C   0  0  0  0  0  0  0  0  0  0  0  0
    0.6220   -9.2160  -24.7110 C   0  0  0  0  0  3  0  0  0  0  0  0
    0.4280   -7.9150  -24.2230 C   0  0  0  0  0  3  0  0  0  0  0  0
   -0.8550   -7.3830  -24.1750 C   0  0  0  0  0  0  0  0  0  0  0  0
   -1.9200   -8.1060  -24.7150 C   0  0  0  0  0  3  0  0  0  0  0  0
   -1.7130   -9.4080  -25.1830 C   0  0  0  0  0  3  0  0  0  0  0  0
   -0.7260  -12.4390  -24.7290 C   0  0  0  0  0  1  0  0  0  0  0  0
   -0.2590  -11.3360  -25.5610 N   0  0  0  0  0  0  0  0  0  0  0  0
    0.5980  -11.6660  -26.6920 C   0  0  0  0  0  1  0  0  0  0  0  0
    1.4450   -6.3890  -28.4330 C   0  0  0  0  0  2  0  0  0  0  0  0
    2.8770   -6.1470  -28.5230 N   0  0  0  0  0  0  0  0  0  0  0  0
    3.2660   -5.3690  -28.0170 H   0  0  0  0  0  0  0  0  0  0  0  0
    3.6940   -7.1780  -28.9670 C   0  0  0  0  0  0  0  0  0  0  0  0
    4.0660   -7.1370  -30.2590 N   0  0  0  0  0  0  0  0  0  0  0  0
    4.5120   -8.2730  -30.7920 C   0  0  0  0  0  3  0  0  0  0  0  0
    4.5260   -9.4590  -30.1830 N   0  0  0  0  0  0  0  0  0  0  0  0
    4.2030   -9.4900  -28.8760 C   0  0  0  0  0  0  0  0  0  0  0  0
    4.1380  -10.6930  -28.1650 C   0  0  0  0  0  0  0  0  0  0  0  0
    3.9130  -10.7600  -26.7830 C   0  0  0  0  0  3  0  0  0  0  0  0
    3.6820   -9.5920  -26.0770 C   0  0  0  0  0  3  0  0  0  0  0  0
    3.6180   -8.3880  -26.7730 C   0  0  0  0  0  3  0  0  0  0  0  0
    3.8600   -8.3280  -28.1730 C   0  0  0  0  0  0  0  0  0  0  0  0
    4.1290  -11.9710  -28.8930 C   0  0  0  0  0  0  0  0  0  0  0  0
    3.3030  -11.9950  -29.9860 N   0  0  0  0  0  0  0  0  0  0  0  0
    4.7210  -12.9590  -28.4870 O   0  0  0  0  0  0  0  0  0  0  0  0
    3.2250  -12.8550  -30.5110 H   0  0  0  0  0  0  0  0  0  0  0  0
    2.7840  -11.1850  -30.2950 H   0  0  0  0  0  0  0  0  0  0  0  0
  1  9  1  0  0  0  0
  2  1  1  0  0  0  0
  3  2  2  0  0  0  0
  4  5  2  0  0  0  0
  4  3  1  0  0  0  0
  5  6  1  0  0  0  0
  6  1  2  0  0  0  0
  7  8  2  0  0  0  0
  9  7  1  0  0  0  0
  9 10  1  0  0  0  0
 11 12  1  0  0  0  0
 12 13  2  0  0  0  0
 13 14  1  0  0  0  0
 14  7  1  0  0  0  0
 15 14  2  0  0  0  0
 16 11  2  0  0  0  0
 16 15  1  0  0  0  0
 18 11  1  0  0  0  0
 18 17  1  0  0  0  0
 19 18  1  0  0  0  0
 20  5  1  0  0  0  0
 21 20  1  0  0  0  0
 21 22  1  0  0  0  0
 23 21  1  0  0  0  0
 23 32  1  0  0  0  0
 24 23  2  0  0  0  0
 25 24  1  0  0  0  0
 25 26  2  0  0  0  0
 26 27  1  0  0  0  0
 27 32  2  0  0  0  0
 27 28  1  0  0  0  0
 28 29  2  0  0  0  0
 29 30  1  0  0  0  0
 31 30  2  0  0  0  0
 32 31  1  0  0  0  0
 33 35  2  0  0  0  0
 33 28  1  0  0  0  0
 34 33  1  0  0  0  0
 36 34  1  0  0  0  0
 37 34  1  0  0  0  0
M  END
>  <minimizedAffinity>
-8.1129837

$$$$

 OpenBabel10152419483D

 37 40  0  0  0  0  0  0  0  0999 V2000
   -2.3740   -8.8510  -21.6970 C   0  0  0  0  0  0  0  0  0  0  0  0
   -3.5480   -8.7230  -22.4400 C   0  0  0  0  0  3  0  0  0  0  0  0
   -3.6960   -7.6560  -23.3210 C   0  0  0  0  0  3  0  0  0  0  0  0
   -2.6580   -6.7380  -23.4810 C   0  0  0  0  0  3  0  0  0  0  0  0
   -1.4240   -6.9070  -22.8350 C   0  0  0  0  0  0  0  0  0  0  0  0
   -1.2950   -7.9910  -21.9530 C   0  0  0  0  0  3  0  0  0  0  0  0
   -1.9610  -11.1530  -20.7480 C   0  0  0  0  0  0  0  0  0  0  0  0
   -2.2210  -11.9230  -19.8260 O   0  0  0  0  0  0  0  0  0  0  0  0
   -2.3560   -9.8320  -20.6900 N   0  0  0  0  0  0  0  0  0  0  0  0
   -2.6140   -9.5450  -19.7520 H   0  0  0  0  0  0  0  0  0  0  0  0
    0.5880  -12.3410  -24.0260 C   0  0  0  0  0  0  0  0  0  0  0  0
   -0.4690  -11.4240  -24.1910 C   0  0  0  0  0  3  0  0  0  0  0  0
   -1.3290  -11.0740  -23.1410 C   0  0  0  0  0  3  0  0  0  0  0  0
   -1.1450  -11.6410  -21.8850 C   0  0  0  0  0  0  0  0  0  0  0  0
   -0.1790  -12.6330  -21.7120 C   0  0  0  0  0  3  0  0  0  0  0  0
    0.6820  -12.9590  -22.7670 C   0  0  0  0  0  3  0  0  0  0  0  0
    2.8910  -12.8970  -24.7470 C   0  0  0  0  0  1  0  0  0  0  0  0
    1.4910  -12.6160  -25.0470 N   0  0  0  0  0  0  0  0  0  0  0  0
    1.1320  -12.4120  -26.4440 C   0  0  0  0  0  1  0  0  0  0  0  0
   -0.2840   -5.9130  -23.0080 C   0  0  0  0  0  2  0  0  0  0  0  0
   -0.0510   -5.5730  -24.4030 N   0  0  0  0  0  0  0  0  0  0  0  0
    0.0160   -4.6020  -24.6570 H   0  0  0  0  0  0  0  0  0  0  0  0
    0.4430   -6.5570  -25.2490 C   0  0  0  0  0  0  0  0  0  0  0  0
    0.8060   -7.7180  -24.6740 N   0  0  0  0  0  0  0  0  0  0  0  0
    1.6150   -8.5100  -25.3760 C   0  0  0  0  0  3  0  0  0  0  0  0
    2.1690   -8.2030  -26.5490 N   0  0  0  0  0  0  0  0  0  0  0  0
    1.7660   -7.0660  -27.1480 C   0  0  0  0  0  0  0  0  0  0  0  0
    2.3290   -6.6330  -28.3530 C   0  0  0  0  0  0  0  0  0  0  0  0
    1.8660   -5.5170  -29.0620 C   0  0  0  0  0  3  0  0  0  0  0  0
    0.8400   -4.7550  -28.5310 C   0  0  0  0  0  3  0  0  0  0  0  0
    0.3390   -5.0840  -27.2750 C   0  0  0  0  0  3  0  0  0  0  0  0
    0.8060   -6.2270  -26.5680 C   0  0  0  0  0  0  0  0  0  0  0  0
    3.5730   -7.2490  -28.8410 C   0  0  0  0  0  0  0  0  0  0  0  0
    4.5360   -7.4170  -27.8820 N   0  0  0  0  0  0  0  0  0  0  0  0
    3.7650   -7.4850  -30.0240 O   0  0  0  0  0  0  0  0  0  0  0  0
    5.4280   -7.8050  -28.1580 H   0  0  0  0  0  0  0  0  0  0  0  0
    4.3850   -7.1830  -26.9100 H   0  0  0  0  0  0  0  0  0  0  0  0
  1  9  1  0  0  0  0
  2  1  2  0  0  0  0
  3  2  1  0  0  0  0
  4  3  2  0  0  0  0
  4  5  1  0  0  0  0
  5  6  2  0  0  0  0
  6  1  1  0  0  0  0
  7  9  1  0  0  0  0
  7  8  2  0  0  0  0
  9 10  1  0  0  0  0
 11 16  1  0  0  0  0
 12 11  2  0  0  0  0
 12 13  1  0  0  0  0
 13 14  2  0  0  0  0
 14 15  1  0  0  0  0
 14  7  1  0  0  0  0
 16 15  2  0  0  0  0
 18 17  1  0  0  0  0
 18 11  1  0  0  0  0
 19 18  1  0  0  0  0
 20  5  1  0  0  0  0
 21 20  1  0  0  0  0
 22 21  1  0  0  0  0
 23 24  1  0  0  0  0
 23 21  1  0  0  0  0
 25 24  2  0  0  0  0
 26 25  1  0  0  0  0
 27 32  1  0  0  0  0
 27 26  2  0  0  0  0
 28 27  1  0  0  0  0
 29 30  1  0  0  0  0
 29 28  2  0  0  0  0
 30 31  2  0  0  0  0
 31 32  1  0  0  0  0
 32 23  2  0  0  0  0
 33 28  1  0  0  0  0
 33 34  1  0  0  0  0
 34 37  1  0  0  0  0
 35 33  2  0  0  0  0
 36 34  1  0  0  0  0
M  END
>  <minimizedAffinity>
-8.09951878

$$$$

 OpenBabel10152419483D

 37 40  0  0  0  0  0  0  0  0999 V2000
   -0.5860   -5.7070  -25.6900 C   0  0  0  0  0  0  0  0  0  0  0  0
   -0.2040   -5.1240  -24.4810 C   0  0  0  0  0  3  0  0  0  0  0  0
   -0.4970   -5.7630  -23.2810 C   0  0  0  0  0  3  0  0  0  0  0  0
   -1.1450   -6.9990  -23.2930 C   0  0  0  0  0  3  0  0  0  0  0  0
   -1.4370   -7.6620  -24.4950 C   0  0  0  0  0  0  0  0  0  0  0  0
   -1.1300   -7.0000  -25.6930 C   0  0  0  0  0  3  0  0  0  0  0  0
    0.6060   -4.8860  -27.7580 C   0  0  0  0  0  0  0  0  0  0  0  0
    0.6660   -3.9880  -28.5950 O   0  0  0  0  0  0  0  0  0  0  0  0
   -0.4340   -4.9300  -26.8520 N   0  0  0  0  0  0  0  0  0  0  0  0
   -1.2140   -4.3420  -27.1280 H   0  0  0  0  0  0  0  0  0  0  0  0
    3.3390   -8.2270  -27.8980 C   0  0  0  0  0  0  0  0  0  0  0  0
    2.6290   -7.8870  -26.7300 C   0  0  0  0  0  3  0  0  0  0  0  0
    1.7780   -6.7740  -26.6670 C   0  0  0  0  0  3  0  0  0  0  0  0
    1.6180   -5.9670  -27.7870 C   0  0  0  0  0  0  0  0  0  0  0  0
    2.3880   -6.2100  -28.9260 C   0  0  0  0  0  3  0  0  0  0  0  0
    3.2200   -7.3350  -28.9780 C   0  0  0  0  0  3  0  0  0  0  0  0
    4.7220   -9.9570  -26.7900 C   0  0  0  0  0  1  0  0  0  0  0  0
    4.1110   -9.3800  -27.9820 N   0  0  0  0  0  0  0  0  0  0  0  0
    4.5220   -9.9170  -29.2740 C   0  0  0  0  0  1  0  0  0  0  0  0
   -2.1390   -9.0130  -24.5170 C   0  0  0  0  0  2  0  0  0  0  0  0
   -1.9650   -9.7490  -23.2740 N   0  0  0  0  0  0  0  0  0  0  0  0
   -2.6000   -9.5670  -22.5150 H   0  0  0  0  0  0  0  0  0  0  0  0
   -1.2100  -10.9140  -23.2970 C   0  0  0  0  0  0  0  0  0  0  0  0
   -1.1140  -11.5910  -22.1380 N   0  0  0  0  0  0  0  0  0  0  0  0
   -0.1170  -12.4680  -22.0360 C   0  0  0  0  0  3  0  0  0  0  0  0
    0.8420  -12.6560  -22.9420 N   0  0  0  0  0  0  0  0  0  0  0  0
    0.7180  -12.0180  -24.1210 C   0  0  0  0  0  0  0  0  0  0  0  0
    1.7000  -12.1090  -25.1130 C   0  0  0  0  0  0  0  0  0  0  0  0
    1.5600  -11.5500  -26.3900 C   0  0  0  0  0  3  0  0  0  0  0  0
    0.4250  -10.8160  -26.6870 C   0  0  0  0  0  3  0  0  0  0  0  0
   -0.5170  -10.6000  -25.6850 C   0  0  0  0  0  3  0  0  0  0  0  0
   -0.3730  -11.1820  -24.3960 C   0  0  0  0  0  0  0  0  0  0  0  0
    3.0230  -12.6610  -24.7800 C   0  0  0  0  0  0  0  0  0  0  0  0
    3.3040  -12.6900  -23.4400 N   0  0  0  0  0  0  0  0  0  0  0  0
    3.8400  -12.9590  -25.6380 O   0  0  0  0  0  0  0  0  0  0  0  0
    4.2120  -13.0260  -23.1460 H   0  0  0  0  0  0  0  0  0  0  0  0
    2.6380  -12.4040  -22.7360 H   0  0  0  0  0  0  0  0  0  0  0  0
  1  2  1  0  0  0  0
  2  3  2  0  0  0  0
  4  3  1  0  0  0  0
  5  4  2  0  0  0  0
  6  1  2  0  0  0  0
  6  5  1  0  0  0  0
  7  9  1  0  0  0  0
  8  7  2  0  0  0  0
  9  1  1  0  0  0  0
 10  9  1  0  0  0  0
 11 12  1  0  0  0  0
 12 13  2  0  0  0  0
 14  7  1  0  0  0  0
 14 13  1  0  0  0  0
 15 14  2  0  0  0  0
 16 15  1  0  0  0  0
 16 11  2  0  0  0  0
 18 11  1  0  0  0  0
 18 17  1  0  0  0  0
 19 18  1  0  0  0  0
 20  5  1  0  0  0  0
 20 21  1  0  0  0  0
 21 22  1  0  0  0  0
 23 21  1  0  0  0  0
 23 24  1  0  0  0  0
 24 25  2  0  0  0  0
 26 25  1  0  0  0  0
 27 26  2  0  0  0  0
 28 33  1  0  0  0  0
 28 27  1  0  0  0  0
 29 28  2  0  0  0  0
 30 29  1  0  0  0  0
 30 31  2  0  0  0  0
 31 32  1  0  0  0  0
 32 27  1  0  0  0  0
 32 23  2  0  0  0  0
 33 34  1  0  0  0  0
 34 36  1  0  0  0  0
 34 37  1  0  0  0  0
 35 33  2  0  0  0  0
M  END
>  <minimizedAffinity>
-7.78336906

$$$$

 OpenBabel10152419483D

 37 40  0  0  0  0  0  0  0  0999 V2000
    1.0020  -11.5110  -26.1190 C   0  0  0  0  0  0  0  0  0  0  0  0
    1.1890  -12.5780  -25.2380 C   0  0  0  0  0  3  0  0  0  0  0  0
    2.4760  -12.9440  -24.8590 C   0  0  0  0  0  3  0  0  0  0  0  0
    3.5720  -12.2250  -25.3360 C   0  0  0  0  0  3  0  0  0  0  0  0
    3.4080  -11.0790  -26.1290 C   0  0  0  0  0  0  0  0  0  0  0  0
    2.1010  -10.7250  -26.4970 C   0  0  0  0  0  3  0  0  0  0  0  0
   -1.4430  -10.9080  -25.9540 C   0  0  0  0  0  0  0  0  0  0  0  0
   -2.5400  -10.9960  -26.5010 O   0  0  0  0  0  0  0  0  0  0  0  0
   -0.2990  -11.3090  -26.6130 N   0  0  0  0  0  0  0  0  0  0  0  0
   -0.4400  -11.4080  -27.6120 H   0  0  0  0  0  0  0  0  0  0  0  0
   -1.4720   -9.1660  -22.0020 C   0  0  0  0  0  0  0  0  0  0  0  0
   -1.8740   -8.4450  -23.1430 C   0  0  0  0  0  3  0  0  0  0  0  0
   -1.8190   -8.9910  -24.4340 C   0  0  0  0  0  3  0  0  0  0  0  0
   -1.3560  -10.2890  -24.6110 C   0  0  0  0  0  0  0  0  0  0  0  0
   -0.8480  -10.9940  -23.5190 C   0  0  0  0  0  3  0  0  0  0  0  0
   -0.9250  -10.4410  -22.2350 C   0  0  0  0  0  3  0  0  0  0  0  0
   -0.8970   -9.2490  -19.5950 C   0  0  0  0  0  1  0  0  0  0  0  0
   -1.6110   -8.6530  -20.7180 N   0  0  0  0  0  0  0  0  0  0  0  0
   -2.6370   -7.6640  -20.4110 C   0  0  0  0  0  1  0  0  0  0  0  0
    4.5980  -10.2850  -26.6490 C   0  0  0  0  0  2  0  0  0  0  0  0
    4.3960   -8.8480  -26.5430 N   0  0  0  0  0  0  0  0  0  0  0  0
    5.1080   -8.2930  -26.0990 H   0  0  0  0  0  0  0  0  0  0  0  0
    3.4530   -8.2510  -27.3700 C   0  0  0  0  0  0  0  0  0  0  0  0
    3.7880   -8.1160  -28.6660 N   0  0  0  0  0  0  0  0  0  0  0  0
    3.0910   -7.2320  -29.3770 C   0  0  0  0  0  3  0  0  0  0  0  0
    2.1650   -6.4060  -28.8900 N   0  0  0  0  0  0  0  0  0  0  0  0
    1.7930   -6.5770  -27.6070 C   0  0  0  0  0  0  0  0  0  0  0  0
    0.8690   -5.7260  -26.9920 C   0  0  0  0  0  0  0  0  0  0  0  0
    0.3760   -5.9320  -25.6960 C   0  0  0  0  0  3  0  0  0  0  0  0
    0.8590   -6.9910  -24.9480 C   0  0  0  0  0  3  0  0  0  0  0  0
    1.8700   -7.7850  -25.4830 C   0  0  0  0  0  3  0  0  0  0  0  0
    2.3550   -7.5770  -26.8030 C   0  0  0  0  0  0  0  0  0  0  0  0
    0.5060   -4.4550  -27.6370 C   0  0  0  0  0  0  0  0  0  0  0  0
    1.4550   -3.9610  -28.4920 N   0  0  0  0  0  0  0  0  0  0  0  0
   -0.5080   -3.8400  -27.3430 O   0  0  0  0  0  0  0  0  0  0  0  0
    1.2820   -3.0730  -28.9430 H   0  0  0  0  0  0  0  0  0  0  0  0
    2.3110   -4.4570  -28.7010 H   0  0  0  0  0  0  0  0  0  0  0  0
  1  2  1  0  0  0  0
  2  3  2  0  0  0  0
  4  3  1  0  0  0  0
  5  4  2  0  0  0  0
  6  5  1  0  0  0  0
  6  1  2  0  0  0  0
  7 14  1  0  0  0  0
  8  7  2  0  0  0  0
  9  1  1  0  0  0  0
  9  7  1  0  0  0  0
 10  9  1  0  0  0  0
 11 18  1  0  0  0  0
 12 11  2  0  0  0  0
 13 12  1  0  0  0  0
 14 13  2  0  0  0  0
 14 15  1  0  0  0  0
 15 16  2  0  0  0  0
 16 11  1  0  0  0  0
 18 19  1  0  0  0  0
 18 17  1  0  0  0  0
 20 21  1  0  0  0  0
 20  5  1  0  0  0  0
 21 22  1  0  0  0  0
 23 32  1  0  0  0  0
 23 21  1  0  0  0  0
 24 23  2  0  0  0  0
 25 26  2  0  0  0  0
 25 24  1  0  0  0  0
 26 27  1  0  0  0  0
 27 28  2  0  0  0  0
 27 32  1  0  0  0  0
 28 29  1  0  0  0  0
 29 30  2  0  0  0  0
 31 30  1  0  0  0  0
 32 31  2  0  0  0  0
 33 35  2  0  0  0  0
 33 28  1  0  0  0  0
 34 33  1  0  0  0  0
 36 34  1  0  0  0  0
 37 34  1  0  0  0  0
M  END
>  <minimizedAffinity>
-7.77355814

$$$$

 OpenBabel10152419483D

 37 40  0  0  0  0  0  0  0  0999 V2000
   -2.0720   -8.7190  -21.8690 C   0  0  0  0  0  0  0  0  0  0  0  0
   -1.9970   -7.4690  -21.2550 C   0  0  0  0  0  3  0  0  0  0  0  0
   -1.4860   -6.3830  -21.9590 C   0  0  0  0  0  3  0  0  0  0  0  0
   -1.0820   -6.5420  -23.2850 C   0  0  0  0  0  3  0  0  0  0  0  0
   -1.2550   -7.7580  -23.9620 C   0  0  0  0  0  0  0  0  0  0  0  0
   -1.7730   -8.8390  -23.2350 C   0  0  0  0  0  3  0  0  0  0  0  0
   -2.2120  -11.1630  -21.2540 C   0  0  0  0  0  0  0  0  0  0  0  0
   -2.7740  -11.9900  -20.5390 O   0  0  0  0  0  0  0  0  0  0  0  0
   -2.4150   -9.8130  -21.0550 N   0  0  0  0  0  0  0  0  0  0  0  0
   -2.8250   -9.6120  -20.1490 H   0  0  0  0  0  0  0  0  0  0  0  0
    0.7190  -12.2650  -24.2280 C   0  0  0  0  0  0  0  0  0  0  0  0
   -0.4700  -11.5880  -24.5610 C   0  0  0  0  0  3  0  0  0  0  0  0
   -1.4460  -11.2720  -23.6060 C   0  0  0  0  0  3  0  0  0  0  0  0
   -1.2490  -11.6320  -22.2780 C   0  0  0  0  0  0  0  0  0  0  0  0
   -0.1350  -12.3970  -21.9300 C   0  0  0  0  0  3  0  0  0  0  0  0
    0.8380  -12.6900  -22.8930 C   0  0  0  0  0  3  0  0  0  0  0  0
    1.3950  -12.7820  -26.5540 C   0  0  0  0  0  1  0  0  0  0  0  0
    1.7230  -12.4960  -25.1620 N   0  0  0  0  0  0  0  0  0  0  0  0
    3.1070  -12.6870  -24.7460 C   0  0  0  0  0  1  0  0  0  0  0  0
   -0.8210   -7.9390  -25.4110 C   0  0  0  0  0  2  0  0  0  0  0  0
    0.5810   -8.3100  -25.5290 N   0  0  0  0  0  0  0  0  0  0  0  0
    0.8720   -9.2080  -25.1820 H   0  0  0  0  0  0  0  0  0  0  0  0
    1.3750   -7.6130  -26.4300 C   0  0  0  0  0  0  0  0  0  0  0  0
    0.8230   -6.5280  -27.0050 N   0  0  0  0  0  0  0  0  0  0  0  0
    1.3970   -6.0820  -28.1200 C   0  0  0  0  0  3  0  0  0  0  0  0
    2.4030   -6.6750  -28.7620 N   0  0  0  0  0  0  0  0  0  0  0  0
    2.9880   -7.7300  -28.1620 C   0  0  0  0  0  0  0  0  0  0  0  0
    4.0140   -8.4500  -28.7820 C   0  0  0  0  0  0  0  0  0  0  0  0
    4.7210   -9.4820  -28.1500 C   0  0  0  0  0  3  0  0  0  0  0  0
    4.3610   -9.8640  -26.8690 C   0  0  0  0  0  3  0  0  0  0  0  0
    3.2640   -9.2520  -26.2680 C   0  0  0  0  0  3  0  0  0  0  0  0
    2.5610   -8.1970  -26.9120 C   0  0  0  0  0  0  0  0  0  0  0  0
    4.2750   -8.2600  -30.2170 C   0  0  0  0  0  0  0  0  0  0  0  0
    4.6620   -6.9920  -30.5600 N   0  0  0  0  0  0  0  0  0  0  0  0
    4.0550   -9.1340  -31.0420 O   0  0  0  0  0  0  0  0  0  0  0  0
    4.8240   -6.7860  -31.5360 H   0  0  0  0  0  0  0  0  0  0  0  0
    4.8050   -6.2610  -29.8760 H   0  0  0  0  0  0  0  0  0  0  0  0
  1  2  1  0  0  0  0
  1  9  1  0  0  0  0
  3  2  2  0  0  0  0
  4  3  1  0  0  0  0
  5  4  2  0  0  0  0
  5  6  1  0  0  0  0
  6  1  2  0  0  0  0
  7  9  1  0  0  0  0
  7  8  2  0  0  0  0
  9 10  1  0  0  0  0
 11 16  1  0  0  0  0
 12 11  2  0  0  0  0
 12 13  1  0  0  0  0
 13 14  2  0  0  0  0
 14 15  1  0  0  0  0
 14  7  1  0  0  0  0
 16 15  2  0  0  0  0
 17 18  1  0  0  0  0
 18 19  1  0  0  0  0
 18 11  1  0  0  0  0
 20  5  1  0  0  0  0
 21 20  1  0  0  0  0
 21 22  1  0  0  0  0
 23 21  1  0  0  0  0
 24 23  2  0  0  0  0
 25 24  1  0  0  0  0
 26 27  1  0  0  0  0
 26 25  2  0  0  0  0
 27 32  1  0  0  0  0
 28 27  2  0  0  0  0
 28 29  1  0  0  0  0
 29 30  2  0  0  0  0
 30 31  1  0  0  0  0
 32 23  1  0  0  0  0
 32 31  2  0  0  0  0
 33 28  1  0  0  0  0
 34 33  1  0  0  0  0
 34 37  1  0  0  0  0
 35 33  2  0  0  0  0
 36 34  1  0  0  0  0
M  END
>  <minimizedAffinity>
-7.51353884

$$$$
