
 OpenBabel10152419483D

 37 40  0  0  0  0  0  0  0  0999 V2000
    1.0020  -11.5110  -26.1190 C   0  0  0  0  0  0  0  0  0  0  0  0
    1.1890  -12.5780  -25.2380 C   0  0  0  0  0  3  0  0  0  0  0  0
    2.4760  -12.9440  -24.8590 C   0  0  0  0  0  3  0  0  0  0  0  0
    3.5720  -12.2250  -25.3360 C   0  0  0  0  0  3  0  0  0  0  0  0
    3.4080  -11.0790  -26.1290 C   0  0  0  0  0  0  0  0  0  0  0  0
    2.1010  -10.7250  -26.4970 C   0  0  0  0  0  3  0  0  0  0  0  0
   -1.4430  -10.9080  -25.9540 C   0  0  0  0  0  0  0  0  0  0  0  0
   -2.5400  -10.9960  -26.5010 O   0  0  0  0  0  0  0  0  0  0  0  0
   -0.2990  -11.3090  -26.6130 N   0  0  0  0  0  0  0  0  0  0  0  0
   -0.4400  -11.4080  -27.6120 H   0  0  0  0  0  0  0  0  0  0  0  0
   -1.4720   -9.1660  -22.0020 C   0  0  0  0  0  0  0  0  0  0  0  0
   -1.8740   -8.4450  -23.1430 C   0  0  0  0  0  3  0  0  0  0  0  0
   -1.8190   -8.9910  -24.4340 C   0  0  0  0  0  3  0  0  0  0  0  0
   -1.3560  -10.2890  -24.6110 C   0  0  0  0  0  0  0  0  0  0  0  0
   -0.8480  -10.9940  -23.5190 C   0  0  0  0  0  3  0  0  0  0  0  0
   -0.9250  -10.4410  -22.2350 C   0  0  0  0  0  3  0  0  0  0  0  0
   -0.8970   -9.2490  -19.5950 C   0  0  0  0  0  1  0  0  0  0  0  0
   -1.6110   -8.6530  -20.7180 N   0  0  0  0  0  0  0  0  0  0  0  0
   -2.6370   -7.6640  -20.4110 C   0  0  0  0  0  1  0  0  0  0  0  0
    4.5980  -10.2850  -26.6490 C   0  0  0  0  0  2  0  0  0  0  0  0
    4.3960   -8.8480  -26.5430 N   0  0  0  0  0  0  0  0  0  0  0  0
    5.1080   -8.2930  -26.0990 H   0  0  0  0  0  0  0  0  0  0  0  0
    3.4530   -8.2510  -27.3700 C   0  0  0  0  0  0  0  0  0  0  0  0
    3.7880   -8.1160  -28.6660 N   0  0  0  0  0  0  0  0  0  0  0  0
    3.0910   -7.2320  -29.3770 C   0  0  0  0  0  3  0  0  0  0  0  0
    2.1650   -6.4060  -28.8900 N   0  0  0  0  0  0  0  0  0  0  0  0
    1.7930   -6.5770  -27.6070 C   0  0  0  0  0  0  0  0  0  0  0  0
    0.8690   -5.7260  -26.9920 C   0  0  0  0  0  0  0  0  0  0  0  0
    0.3760   -5.9320  -25.6960 C   0  0  0  0  0  3  0  0  0  0  0  0
    0.8590   -6.9910  -24.9480 C   0  0  0  0  0  3  0  0  0  0  0  0
    1.8700   -7.7850  -25.4830 C   0  0  0  0  0  3  0  0  0  0  0  0
    2.3550   -7.5770  -26.8030 C   0  0  0  0  0  0  0  0  0  0  0  0
    0.5060   -4.4550  -27.6370 C   0  0  0  0  0  0  0  0  0  0  0  0
    1.4550   -3.9610  -28.4920 N   0  0  0  0  0  0  0  0  0  0  0  0
   -0.5080   -3.8400  -27.3430 O   0  0  0  0  0  0  0  0  0  0  0  0
    1.2820   -3.0730  -28.9430 H   0  0  0  0  0  0  0  0  0  0  0  0
    2.3110   -4.4570  -28.7010 H   0  0  0  0  0  0  0  0  0  0  0  0
  1  2  1  0  0  0  0
  2  3  2  0  0  0  0
  4  3  1  0  0  0  0
  5  4  2  0  0  0  0
  6  5  1  0  0  0  0
  6  1  2  0  0  0  0
  7 14  1  0  0  0  0
  8  7  2  0  0  0  0
  9  1  1  0  0  0  0
  9  7  1  0  0  0  0
 10  9  1  0  0  0  0
 11 18  1  0  0  0  0
 12 11  2  0  0  0  0
 13 12  1  0  0  0  0
 14 13  2  0  0  0  0
 14 15  1  0  0  0  0
 15 16  2  0  0  0  0
 16 11  1  0  0  0  0
 18 19  1  0  0  0  0
 18 17  1  0  0  0  0
 20 21  1  0  0  0  0
 20  5  1  0  0  0  0
 21 22  1  0  0  0  0
 23 32  1  0  0  0  0
 23 21  1  0  0  0  0
 24 23  2  0  0  0  0
 25 26  2  0  0  0  0
 25 24  1  0  0  0  0
 26 27  1  0  0  0  0
 27 28  2  0  0  0  0
 27 32  1  0  0  0  0
 28 29  1  0  0  0  0
 29 30  2  0  0  0  0
 31 30  1  0  0  0  0
 32 31  2  0  0  0  0
 33 35  2  0  0  0  0
 33 28  1  0  0  0  0
 34 33  1  0  0  0  0
 36 34  1  0  0  0  0
 37 34  1  0  0  0  0
M  END
>  <minimizedAffinity>
-7.77355814

$$$$
