REMARK  Name = 
REMARK  9 active torsions:
REMARK  status: ('A' for Active; 'I' for Inactive)
REMARK    1  A    between atoms: C_1  and  N_2
REMARK    2  A    between atoms: N_2  and  C_3
REMARK    3  A    between atoms: N_2  and  C_4
REMARK    4  A    between atoms: C_7  and  C_8
REMARK    5  A    between atoms: N_10  and  C_11
REMARK    6  A    between atoms: C_15  and  C_16
REMARK    7  A    between atoms: C_16  and  N_17
REMARK    8  A    between atoms: N_17  and  C_18
REMARK    9  A    between atoms: C_23  and  C_24
REMARK                            x       y       z     vdW  Elec       q    Type
REMARK                         _______ _______ _______ _____ _____    ______ ____
ROOT
ATOM      1  C   UNL     1       4.547   3.996   3.497  0.00  0.00    +0.034 A 
ATOM      2  C   UNL     1       5.620   3.545   4.266  0.00  0.00    +0.023 A 
ATOM      3  C   UNL     1       6.532   2.647   3.721  0.00  0.00    +0.002 A 
ATOM      4  C   UNL     1       6.387   2.226   2.399  0.00  0.00    +0.005 A 
ATOM      5  C   UNL     1       5.386   2.752   1.568  0.00  0.00    -0.029 A 
ATOM      6  C   UNL     1       4.479   3.658   2.137  0.00  0.00    +0.028 A 
ENDROOT
BRANCH   1   9
ATOM      7  C   UNL     1       2.212   4.875   3.880  0.00  0.00    +0.248 C 
ATOM      8  O   UNL     1       1.543   5.748   4.429  0.00  0.00    -0.270 OA
ATOM      9  N   UNL     1       3.558   4.748   4.156  0.00  0.00    -0.281 N 
ATOM     10  H   UNL     1       3.829   5.239   5.001  0.00  0.00    +0.155 HD
BRANCH   7  14
ATOM     11  C   UNL     1       0.454   2.114   1.063  0.00  0.00    +0.029 A 
ATOM     12  C   UNL     1       0.183   3.496   1.028  0.00  0.00    +0.024 A 
ATOM     13  C   UNL     1       0.713   4.388   1.971  0.00  0.00    +0.015 A 
ATOM     14  C   UNL     1       1.538   3.909   2.982  0.00  0.00    +0.037 A 
ATOM     15  C   UNL     1       1.740   2.534   3.112  0.00  0.00    +0.015 A 
ATOM     16  C   UNL     1       1.217   1.659   2.153  0.00  0.00    +0.024 A 
BRANCH  11  18
ATOM     17  C   UNL     1       0.520  -0.111  -0.023  0.00  0.00    +0.129 C 
ATOM     18  N   UNL     1      -0.001   1.248   0.075  0.00  0.00    -0.336 N 
ATOM     19  C   UNL     1      -0.830   1.729  -1.023  0.00  0.00    +0.129 C 
ENDBRANCH  11  18
ENDBRANCH   7  14
ENDBRANCH   1   9
BRANCH   5  20
ATOM     20  C   UNL     1       5.224   2.302   0.122  0.00  0.00    +0.138 C 
BRANCH  20  21
ATOM     21  N   UNL     1       6.337   2.719  -0.717  0.00  0.00    -0.324 N 
ATOM     22  H   UNL     1       6.296   3.623  -1.156  0.00  0.00    +0.148 HD
BRANCH  21  23
ATOM     23  C   UNL     1       7.550   2.056  -0.582  0.00  0.00    +0.130 A 
ATOM     24  N   UNL     1       7.493   0.719  -0.445  0.00  0.00    -0.220 NA
ATOM     25  C   UNL     1       8.571   0.120   0.057  0.00  0.00    +0.223 A 
ATOM     26  N   UNL     1       9.654   0.742   0.523  0.00  0.00    -0.235 NA
ATOM     27  C   UNL     1       9.733   2.074   0.339  0.00  0.00    +0.088 A 
ATOM     28  C   UNL     1      10.804   2.821   0.840  0.00  0.00    +0.063 A 
ATOM     29  C   UNL     1      10.979   4.187   0.579  0.00  0.00    +0.015 A 
ATOM     30  C   UNL     1      10.024   4.863  -0.160  0.00  0.00    +0.002 A 
ATOM     31  C   UNL     1       8.883   4.179  -0.570  0.00  0.00    +0.013 A 
ATOM     32  C   UNL     1       8.720   2.790  -0.312  0.00  0.00    +0.041 A 
BRANCH  28  33
ATOM     33  C   UNL     1      11.713   2.221   1.829  0.00  0.00    +0.244 C 
ATOM     34  N   UNL     1      11.183   2.100   3.086  0.00  0.00    -0.325 N 
ATOM     35  O   UNL     1      12.878   1.960   1.571  0.00  0.00    -0.270 OA
ATOM     36  H   UNL     1      11.768   1.726   3.821  0.00  0.00    +0.145 HD
ATOM     37  H   UNL     1      10.229   2.355   3.303  0.00  0.00    +0.145 HD
ENDBRANCH  28  33
ENDBRANCH  21  23
ENDBRANCH  20  21
ENDBRANCH   5  20
TORSDOF 7
