REMARK  Name = 
REMARK  11 active torsions:
REMARK  status: ('A' for Active; 'I' for Inactive)
REMARK    1  A    between atoms: C_1  and  N_2
REMARK    2  A    between atoms: N_2  and  C_3
REMARK    3  A    between atoms: N_2  and  C_4
REMARK    4  A    between atoms: C_4  and  C_5
REMARK    5  A    between atoms: C_5  and  C_6
REMARK    6  A    between atoms: C_6  and  N_7
REMARK    7  A    between atoms: C_6  and  C_21
REMARK    8  A    between atoms: N_7  and  C_8
REMARK    9  A    between atoms: C_13  and  C_14
REMARK   10  A    between atoms: C_25  and  N_26
REMARK   11  A    between atoms: C_27  and  C_29
REMARK                            x       y       z     vdW  Elec       q    Type
REMARK                         _______ _______ _______ _____ _____    ______ ____
ROOT
ATOM      1  C   UNL     1      -1.448  -2.383  -1.567  0.00  0.00    +0.107 C 
ENDROOT
BRANCH   1   2
ATOM      2  C   UNL     1      -2.114  -2.059  -2.912  0.00  0.00    -0.025 A 
ATOM      3  C   UNL     1      -1.762  -0.874  -3.583  0.00  0.00    +0.005 A 
ATOM      4  C   UNL     1      -2.291  -0.566  -4.838  0.00  0.00    +0.002 A 
ATOM      5  C   UNL     1      -3.106  -1.479  -5.506  0.00  0.00    +0.023 A 
ATOM      6  C   UNL     1      -3.401  -2.700  -4.921  0.00  0.00    +0.034 A 
ATOM      7  C   UNL     1      -2.992  -2.918  -3.593  0.00  0.00    +0.028 A 
BRANCH   6   8
ATOM      8  N   UNL     1      -4.028  -3.791  -5.549  0.00  0.00    -0.281 N 
ATOM      9  C   UNL     1      -4.448  -4.069  -6.826  0.00  0.00    +0.248 C 
ATOM     10  O   UNL     1      -4.968  -5.160  -7.057  0.00  0.00    -0.270 OA
ATOM     11  H   UNL     1      -4.186  -4.610  -4.972  0.00  0.00    +0.155 HD
BRANCH   9  12
ATOM     12  C   UNL     1      -4.343  -3.112  -7.933  0.00  0.00    +0.037 A 
ATOM     13  C   UNL     1      -5.535  -2.607  -8.463  0.00  0.00    +0.014 A 
ATOM     14  C   UNL     1      -5.492  -1.690  -9.512  0.00  0.00    +0.016 A 
ATOM     15  C   UNL     1      -4.259  -1.296 -10.031  0.00  0.00    +0.018 A 
ATOM     16 BR   UNL     1      -4.202  -0.018 -11.423  0.00  0.00    -0.050 Br
ATOM     17  C   UNL     1      -3.069  -1.833  -9.534  0.00  0.00    +0.016 A 
ATOM     18  C   UNL     1      -3.108  -2.763  -8.490  0.00  0.00    +0.014 A 
ENDBRANCH   9  12
ENDBRANCH   6   8
ENDBRANCH   1   2
BRANCH   1  19
ATOM     19  N   UNL     1      -1.837  -3.621  -0.897  0.00  0.00    -0.321 N 
ATOM     20  H   UNL     1      -2.556  -3.524  -0.178  0.00  0.00    +0.148 HD
BRANCH  19  21
ATOM     21  C   UNL     1      -2.039  -4.891  -1.378  0.00  0.00    +0.130 A 
ATOM     22  N   UNL     1      -3.083  -5.439  -0.736  0.00  0.00    -0.220 NA
ATOM     23  C   UNL     1      -3.602  -6.544  -1.262  0.00  0.00    +0.223 A 
ATOM     24  N   UNL     1      -3.197  -7.118  -2.394  0.00  0.00    -0.235 NA
ATOM     25  C   UNL     1      -2.095  -6.629  -3.001  0.00  0.00    +0.088 A 
ATOM     26  C   UNL     1      -1.615  -7.184  -4.200  0.00  0.00    +0.063 A 
ATOM     27  C   UNL     1      -0.427  -6.722  -4.792  0.00  0.00    +0.015 A 
ATOM     28  C   UNL     1       0.290  -5.685  -4.217  0.00  0.00    +0.002 A 
ATOM     29  C   UNL     1      -0.205  -5.078  -3.069  0.00  0.00    +0.013 A 
ATOM     30  C   UNL     1      -1.409  -5.517  -2.466  0.00  0.00    +0.041 A 
BRANCH  26  31
ATOM     31  C   UNL     1      -2.345  -8.245  -4.960  0.00  0.00    +0.244 C 
ATOM     32  N   UNL     1      -3.661  -8.459  -4.673  0.00  0.00    -0.325 N 
ATOM     33  O   UNL     1      -1.793  -8.876  -5.856  0.00  0.00    -0.270 OA
ATOM     34  H   UNL     1      -4.177  -9.129  -5.226  0.00  0.00    +0.145 HD
ATOM     35  H   UNL     1      -4.122  -7.992  -3.901  0.00  0.00    +0.145 HD
ENDBRANCH  26  31
ENDBRANCH  19  21
ENDBRANCH   1  19
BRANCH   1  36
ATOM     36  C   UNL     1      -1.693  -1.227  -0.557  0.00  0.00    +0.078 C 
BRANCH  36  37
ATOM     37  C   UNL     1      -0.961  -1.342   0.782  0.00  0.00    +0.133 C 
BRANCH  37  39
ATOM     38  C   UNL     1       1.104  -0.090  -0.002  0.00  0.00    +0.190 C 
ATOM     39  N   UNL     1       0.550  -1.315   0.674  0.00  0.00    +0.231 N 
ATOM     40  C   UNL     1       1.178  -1.490   2.040  0.00  0.00    +0.190 C 
ATOM     41  H   UNL     1       0.842  -2.141   0.134  0.00  0.00    +0.203 HD
ENDBRANCH  37  39
ENDBRANCH  36  37
ENDBRANCH   1  36
TORSDOF 9
