
 OpenBabel10152418143D

 39 42  0  0  1  0  0  0  0  0999 V2000
    3.4180   -8.3680  -27.2150 C   0  0  2  0  0  3  0  0  0  0  0  0
    2.8440   -9.5930  -26.4970 C   0  0  0  0  0  0  0  0  0  0  0  0
    3.6640  -10.6320  -26.0390 C   0  0  0  0  0  3  0  0  0  0  0  0
    3.1030  -11.8380  -25.6320 C   0  0  0  0  0  3  0  0  0  0  0  0
    1.7240  -12.0390  -25.7200 C   0  0  0  0  0  3  0  0  0  0  0  0
    0.8750  -11.0120  -26.1280 C   0  0  0  0  0  0  0  0  0  0  0  0
    1.4470   -9.7740  -26.4500 C   0  0  0  0  0  3  0  0  0  0  0  0
   -0.5090  -11.1340  -26.3720 N   0  0  0  0  0  0  0  0  0  0  0  0
   -1.6250  -10.9670  -25.5880 C   0  0  0  0  0  0  0  0  0  0  0  0
   -2.7200  -11.3700  -25.9760 O   0  0  0  0  0  0  0  0  0  0  0  0
   -0.7700  -11.5190  -27.2730 H   0  0  0  0  0  0  0  0  0  0  0  0
   -1.5500  -10.2570  -24.3080 C   0  0  0  0  0  0  0  0  0  0  0  0
   -2.0810   -8.9680  -24.2010 C   0  0  0  0  0  3  0  0  0  0  0  0
   -2.1100   -8.3470  -22.9500 C   0  0  0  0  0  3  0  0  0  0  0  0
   -1.5930   -9.0100  -21.8340 C   0  0  0  0  0  0  0  0  0  0  0  0
   -1.7010   -8.1990  -20.1300 Br  0  0  0  0  0  0  0  0  0  0  0  0
   -1.0180  -10.2770  -21.9550 C   0  0  0  0  0  3  0  0  0  0  0  0
   -0.9850  -10.9020  -23.2000 C   0  0  0  0  0  3  0  0  0  0  0  0
    2.4310   -7.7250  -28.1110 N   0  0  0  0  0  0  0  0  0  0  0  0
    1.5910   -8.2840  -28.2420 H   0  0  0  0  0  0  0  0  0  0  0  0
    1.9740   -6.4260  -27.9500 C   0  0  0  0  0  0  0  0  0  0  0  0
    2.2910   -5.6610  -29.0050 N   0  0  0  0  0  0  0  0  0  0  0  0
    1.7150   -4.4620  -29.0550 C   0  0  0  0  0  3  0  0  0  0  0  0
    0.8440   -3.9690  -28.1700 N   0  0  0  0  0  0  0  0  0  0  0  0
    0.5650   -4.7130  -27.0750 C   0  0  0  0  0  0  0  0  0  0  0  0
   -0.3670   -4.2940  -26.1040 C   0  0  0  0  0  0  0  0  0  0  0  0
   -0.5870   -5.0380  -24.9290 C   0  0  0  0  0  3  0  0  0  0  0  0
    0.1320   -6.1990  -24.6880 C   0  0  0  0  0  3  0  0  0  0  0  0
    1.0180   -6.6540  -25.6570 C   0  0  0  0  0  3  0  0  0  0  0  0
    1.1970   -5.9550  -26.8770 C   0  0  0  0  0  0  0  0  0  0  0  0
   -1.2040   -3.0610  -26.2570 C   0  0  0  0  0  0  0  0  0  0  0  0
   -0.5980   -1.9140  -26.6770 N   0  0  0  0  0  0  0  0  0  0  0  0
   -2.4050   -3.0630  -26.0150 O   0  0  0  0  0  0  0  0  0  0  0  0
   -1.1500   -1.0760  -26.7830 H   0  0  0  0  0  0  0  0  0  0  0  0
    0.3870   -1.9070  -26.9220 H   0  0  0  0  0  0  0  0  0  0  0  0
    4.6870   -8.7530  -28.0110 C   0  0  0  0  0  2  0  0  0  0  0  0
    4.4670   -9.1530  -29.4700 C   0  0  0  0  0  2  0  0  0  0  0  0
    3.7460   -8.2520  -31.5590 C   0  0  0  0  0  1  0  0  0  0  0  0
    4.4770   -8.0440  -30.3600 O   0  0  0  0  0  0  0  0  0  0  0  0
  1 36  1  6  0  0  0
  1  2  1  0  0  0  0
  2  7  2  0  0  0  0
  2  3  1  0  0  0  0
  3  4  2  0  0  0  0
  5  4  1  0  0  0  0
  6  5  2  0  0  0  0
  7  6  1  0  0  0  0
  8  6  1  0  0  0  0
  8  9  1  0  0  0  0
  9 12  1  0  0  0  0
 10  9  2  0  0  0  0
 11  8  1  0  0  0  0
 12 13  2  0  0  0  0
 12 18  1  0  0  0  0
 13 14  1  0  0  0  0
 14 15  2  0  0  0  0
 15 16  1  0  0  0  0
 17 15  1  0  0  0  0
 18 17  2  0  0  0  0
 19 21  1  0  0  0  0
 19  1  1  0  0  0  0
 20 19  1  0  0  0  0
 21 30  1  0  0  0  0
 22 21  2  0  0  0  0
 23 22  1  0  0  0  0
 23 24  2  0  0  0  0
 24 25  1  0  0  0  0
 25 30  2  0  0  0  0
 25 26  1  0  0  0  0
 26 27  2  0  0  0  0
 27 28  1  0  0  0  0
 29 28  2  0  0  0  0
 30 29  1  0  0  0  0
 31 26  1  0  0  0  0
 31 33  2  0  0  0  0
 32 31  1  0  0  0  0
 34 32  1  0  0  0  0
 35 32  1  0  0  0  0
 37 36  1  0  0  0  0
 38 39  1  0  0  0  0
 39 37  1  0  0  0  0
M  END
>  <minimizedAffinity>
-6.79137278

$$$$
