
 OpenBabel10152418143D

 39 42  0  0  1  0  0  0  0  0999 V2000
    2.1200   -9.2840  -26.0300 C   0  0  2  0  0  3  0  0  0  0  0  0
    0.7990  -10.0600  -26.0100 C   0  0  0  0  0  0  0  0  0  0  0  0
   -0.1850   -9.8650  -26.9870 C   0  0  0  0  0  3  0  0  0  0  0  0
   -1.4650  -10.3780  -26.8020 C   0  0  0  0  0  3  0  0  0  0  0  0
   -1.7900  -11.0520  -25.6220 C   0  0  0  0  0  3  0  0  0  0  0  0
   -0.8240  -11.3020  -24.6510 C   0  0  0  0  0  0  0  0  0  0  0  0
    0.4830  -10.8550  -24.8910 C   0  0  0  0  0  3  0  0  0  0  0  0
   -1.0610  -11.8580  -23.3760 N   0  0  0  0  0  0  0  0  0  0  0  0
   -1.2080  -11.3170  -22.1210 C   0  0  0  0  0  0  0  0  0  0  0  0
   -1.1660  -12.0390  -21.1270 O   0  0  0  0  0  0  0  0  0  0  0  0
   -1.0210  -12.8690  -23.3170 H   0  0  0  0  0  0  0  0  0  0  0  0
   -1.4760   -9.8860  -21.9420 C   0  0  0  0  0  0  0  0  0  0  0  0
   -1.4050   -9.3260  -20.6630 C   0  0  0  0  0  3  0  0  0  0  0  0
   -1.5450   -7.9440  -20.5180 C   0  0  0  0  0  3  0  0  0  0  0  0
   -1.7740   -7.1480  -21.6440 C   0  0  0  0  0  0  0  0  0  0  0  0
   -1.8900   -5.2710  -21.4560 Br  0  0  0  0  0  0  0  0  0  0  0  0
   -1.8940   -7.7190  -22.9140 C   0  0  0  0  0  3  0  0  0  0  0  0
   -1.7550   -9.0970  -23.0650 C   0  0  0  0  0  3  0  0  0  0  0  0
    2.3040   -8.5140  -27.2800 N   0  0  0  0  0  0  0  0  0  0  0  0
    1.9560   -9.0020  -28.1020 H   0  0  0  0  0  0  0  0  0  0  0  0
    1.8910   -7.2000  -27.4430 C   0  0  0  0  0  0  0  0  0  0  0  0
    2.1920   -6.7400  -28.6670 N   0  0  0  0  0  0  0  0  0  0  0  0
    1.6500   -5.5740  -29.0070 C   0  0  0  0  0  3  0  0  0  0  0  0
    0.8260   -4.8390  -28.2530 N   0  0  0  0  0  0  0  0  0  0  0  0
    0.5650   -5.2690  -26.9970 C   0  0  0  0  0  0  0  0  0  0  0  0
   -0.3190   -4.5820  -26.1400 C   0  0  0  0  0  0  0  0  0  0  0  0
   -0.5180   -4.9940  -24.8090 C   0  0  0  0  0  3  0  0  0  0  0  0
    0.1750   -6.0820  -24.2990 C   0  0  0  0  0  3  0  0  0  0  0  0
    1.0120   -6.8010  -25.1430 C   0  0  0  0  0  3  0  0  0  0  0  0
    1.1670   -6.4430  -26.5060 C   0  0  0  0  0  0  0  0  0  0  0  0
   -1.1250   -3.3990  -26.5790 C   0  0  0  0  0  0  0  0  0  0  0  0
   -0.6890   -2.1530  -26.2340 N   0  0  0  0  0  0  0  0  0  0  0  0
   -2.1530   -3.5260  -27.2320 O   0  0  0  0  0  0  0  0  0  0  0  0
   -1.2230   -1.3480  -26.5230 H   0  0  0  0  0  0  0  0  0  0  0  0
    0.1840   -2.0300  -25.7300 H   0  0  0  0  0  0  0  0  0  0  0  0
    3.3140  -10.2440  -25.8160 C   0  0  0  0  0  2  0  0  0  0  0  0
    4.4460  -10.1420  -26.8380 C   0  0  0  0  0  2  0  0  0  0  0  0
    3.6210  -12.0360  -28.0340 C   0  0  0  0  0  1  0  0  0  0  0  0
    4.7450  -11.3830  -27.4650 O   0  0  0  0  0  0  0  0  0  0  0  0
  1  2  1  0  0  0  0
  1 36  1  6  0  0  0
  2  7  1  0  0  0  0
  3  4  1  0  0  0  0
  3  2  2  0  0  0  0
  4  5  2  0  0  0  0
  5  6  1  0  0  0  0
  6  8  1  0  0  0  0
  7  6  2  0  0  0  0
  8 11  1  0  0  0  0
  8  9  1  0  0  0  0
  9 12  1  0  0  0  0
  9 10  2  0  0  0  0
 12 13  1  0  0  0  0
 13 14  2  0  0  0  0
 15 16  1  0  0  0  0
 15 14  1  0  0  0  0
 17 15  2  0  0  0  0
 18 17  1  0  0  0  0
 18 12  2  0  0  0  0
 19  1  1  0  0  0  0
 20 19  1  0  0  0  0
 21 19  1  0  0  0  0
 21 30  1  0  0  0  0
 22 21  2  0  0  0  0
 23 22  1  0  0  0  0
 23 24  2  0  0  0  0
 24 25  1  0  0  0  0
 25 30  2  0  0  0  0
 25 26  1  0  0  0  0
 26 27  2  0  0  0  0
 27 28  1  0  0  0  0
 29 28  2  0  0  0  0
 30 29  1  0  0  0  0
 31 32  1  0  0  0  0
 31 26  1  0  0  0  0
 32 35  1  0  0  0  0
 33 31  2  0  0  0  0
 34 32  1  0  0  0  0
 37 36  1  0  0  0  0
 38 39  1  0  0  0  0
 39 37  1  0  0  0  0
M  END
>  <minimizedAffinity>
-3.82698584

$$$$
