REMARK  Name = 
REMARK  10 active torsions:
REMARK  status: ('A' for Active; 'I' for Inactive)
REMARK    1  A    between atoms: C_1  and  O_2
REMARK    2  A    between atoms: O_2  and  C_3
REMARK    3  A    between atoms: C_3  and  C_4
REMARK    4  A    between atoms: C_4  and  C_5
REMARK    5  A    between atoms: C_5  and  N_6
REMARK    6  A    between atoms: C_5  and  C_20
REMARK    7  A    between atoms: N_6  and  C_7
REMARK    8  A    between atoms: C_12  and  C_13
REMARK    9  A    between atoms: C_24  and  N_25
REMARK   10  A    between atoms: C_26  and  C_28
REMARK                            x       y       z     vdW  Elec       q    Type
REMARK                         _______ _______ _______ _____ _____    ______ ____
ROOT
ATOM      1  C   UNL     1       1.062  -1.270   2.259  0.00  0.00    +0.104 C 
ENDROOT
BRANCH   1   2
ATOM      2  C   UNL     1       0.555  -2.310   3.263  0.00  0.00    -0.025 A 
ATOM      3  C   UNL     1       0.661  -2.114   4.646  0.00  0.00    +0.005 A 
ATOM      4  C   UNL     1       0.439  -3.172   5.521  0.00  0.00    +0.002 A 
ATOM      5  C   UNL     1       0.153  -4.447   5.027  0.00  0.00    +0.023 A 
ATOM      6  C   UNL     1      -0.004  -4.667   3.661  0.00  0.00    +0.034 A 
ATOM      7  C   UNL     1       0.136  -3.572   2.797  0.00  0.00    +0.028 A 
BRANCH   6   8
ATOM      8  N   UNL     1      -0.169  -5.924   3.041  0.00  0.00    -0.281 N 
ATOM      9  C   UNL     1      -0.289  -7.206   3.521  0.00  0.00    +0.248 C 
ATOM     10  O   UNL     1      -0.180  -8.165   2.759  0.00  0.00    -0.270 OA
ATOM     11  H   UNL     1      -0.087  -5.936   2.031  0.00  0.00    +0.155 HD
BRANCH   9  12
ATOM     12  C   UNL     1      -0.606  -7.459   4.930  0.00  0.00    +0.037 A 
ATOM     13  C   UNL     1       0.343  -8.075   5.751  0.00  0.00    +0.014 A 
ATOM     14  C   UNL     1       0.078  -8.205   7.116  0.00  0.00    +0.016 A 
ATOM     15  C   UNL     1      -1.133  -7.739   7.635  0.00  0.00    +0.018 A 
ATOM     16 BR   UNL     1      -1.459  -7.849   9.494  0.00  0.00    -0.050 Br
ATOM     17  C   UNL     1      -2.099  -7.170   6.802  0.00  0.00    +0.016 A 
ATOM     18  C   UNL     1      -1.841  -7.038   5.439  0.00  0.00    +0.014 A 
ENDBRANCH   9  12
ENDBRANCH   6   8
ENDBRANCH   1   2
BRANCH   1  19
ATOM     19  N   UNL     1       2.538  -1.159   2.259  0.00  0.00    -0.322 N 
ATOM     20  H   UNL     1       2.870  -0.286   2.661  0.00  0.00    +0.148 HD
BRANCH  19  21
ATOM     21  C   UNL     1       3.384  -2.132   2.768  0.00  0.00    +0.130 A 
ATOM     22  N   UNL     1       4.133  -1.654   3.773  0.00  0.00    -0.220 NA
ATOM     23  C   UNL     1       4.817  -2.553   4.476  0.00  0.00    +0.223 A 
ATOM     24  N   UNL     1       4.807  -3.876   4.285  0.00  0.00    -0.235 NA
ATOM     25  C   UNL     1       4.099  -4.358   3.238  0.00  0.00    +0.088 A 
ATOM     26  C   UNL     1       3.999  -5.740   2.976  0.00  0.00    +0.063 A 
ATOM     27  C   UNL     1       3.328  -6.224   1.837  0.00  0.00    +0.015 A 
ATOM     28  C   UNL     1       2.765  -5.343   0.926  0.00  0.00    +0.002 A 
ATOM     29  C   UNL     1       2.810  -3.980   1.193  0.00  0.00    +0.013 A 
ATOM     30  C   UNL     1       3.418  -3.481   2.373  0.00  0.00    +0.041 A 
BRANCH  26  31
ATOM     31  C   UNL     1       4.562  -6.785   3.889  0.00  0.00    +0.244 C 
ATOM     32  N   UNL     1       5.419  -6.391   4.875  0.00  0.00    -0.325 N 
ATOM     33  O   UNL     1       4.273  -7.969   3.770  0.00  0.00    -0.270 OA
ATOM     34  H   UNL     1       5.806  -7.085   5.496  0.00  0.00    +0.145 HD
ATOM     35  H   UNL     1       5.634  -5.408   5.013  0.00  0.00    +0.145 HD
ENDBRANCH  26  31
ENDBRANCH  19  21
ENDBRANCH   1  19
BRANCH   1  36
ATOM     36  C   UNL     1       0.424   0.110   2.541  0.00  0.00    +0.055 C 
BRANCH  36  37
ATOM     37  C   UNL     1       0.824   1.239   1.591  0.00  0.00    +0.161 C 
BRANCH  37  39
ATOM     38  C   UNL     1       0.916   0.446  -0.659  0.00  0.00    +0.193 C 
ATOM     39  O   UNL     1       0.181   1.158   0.325  0.00  0.00    -0.383 OA
ENDBRANCH  37  39
ENDBRANCH  36  37
ENDBRANCH   1  36
TORSDOF 9
