
 OpenBabel10152419353D

 39 43  0  0  0  0  0  0  0  0999 V2000
   -0.4250   -5.9870  -27.0960 C   0  0  0  0  0  0  0  0  0  0  0  0
   -0.4140   -4.6010  -26.8940 C   0  0  0  0  0  3  0  0  0  0  0  0
    0.6510   -3.8400  -27.3580 C   0  0  0  0  0  3  0  0  0  0  0  0
    1.7220   -4.4600  -28.0030 C   0  0  0  0  0  3  0  0  0  0  0  0
    1.7760   -5.8480  -28.1440 C   0  0  0  0  0  0  0  0  0  0  0  0
    0.6730   -6.6010  -27.7230 C   0  0  0  0  0  3  0  0  0  0  0  0
    2.8500   -6.5530  -28.7270 N   0  0  0  0  0  0  0  0  0  0  0  0
    3.6470   -7.5750  -28.2580 C   0  0  0  0  0  0  0  0  0  0  0  0
    4.6700   -7.8990  -28.8560 O   0  0  0  0  0  0  0  0  0  0  0  0
    3.1160   -6.2750  -29.6660 H   0  0  0  0  0  0  0  0  0  0  0  0
    3.2640   -8.3390  -27.0580 C   0  0  0  0  0  0  0  0  0  0  0  0
    2.6140   -7.6590  -26.0070 C   0  0  0  0  0  3  0  0  0  0  0  0
    2.0880   -8.3770  -24.9300 C   0  0  0  0  0  3  0  0  0  0  0  0
    2.2370   -9.7490  -24.9440 C   0  0  0  0  0  0  0  0  0  0  0  0
    2.9240  -10.4010  -25.9460 C   0  0  0  0  0  0  0  0  0  0  0  0
    3.4780   -9.7230  -27.0090 C   0  0  0  0  0  3  0  0  0  0  0  0
    2.9300  -11.7500  -25.7800 O   0  0  0  0  0  0  0  0  0  0  0  0
    2.0630  -11.8620  -24.6430 C   0  0  0  0  0  0  0  0  0  0  0  0
    0.9160  -12.4700  -25.0400 F   0  0  0  0  0  0  0  0  0  0  0  0
    2.6530  -12.6580  -23.7200 F   0  0  0  0  0  0  0  0  0  0  0  0
    1.7210  -10.6120  -24.0260 O   0  0  0  0  0  0  0  0  0  0  0  0
   -1.6650   -6.7880  -26.7670 C   0  0  0  0  0  2  0  0  0  0  0  0
   -1.6560  -10.0680  -21.5930 C   0  0  0  0  0  0  0  0  0  0  0  0
   -1.6800   -9.0220  -20.6550 C   0  0  0  0  0  3  0  0  0  0  0  0
   -1.6740   -7.7100  -21.0960 C   0  0  0  0  0  3  0  0  0  0  0  0
   -1.6460   -7.4590  -22.4640 C   0  0  0  0  0  3  0  0  0  0  0  0
   -1.6430   -8.5150  -23.4190 C   0  0  0  0  0  0  0  0  0  0  0  0
   -1.6500   -8.3210  -24.8180 C   0  0  0  0  0  0  0  0  0  0  0  0
   -1.6520   -7.0330  -25.3380 N   0  0  0  0  0  0  0  0  0  0  0  0
   -1.6180   -9.3480  -25.6800 N   0  0  0  0  0  0  0  0  0  0  0  0
   -1.6190  -10.5740  -25.1540 C   0  0  0  0  0  3  0  0  0  0  0  0
   -1.6530  -10.8710  -23.8530 N   0  0  0  0  0  0  0  0  0  0  0  0
   -1.6410   -9.8500  -22.9790 C   0  0  0  0  0  0  0  0  0  0  0  0
   -2.1690   -6.3560  -24.7940 H   0  0  0  0  0  0  0  0  0  0  0  0
   -0.5650  -12.2130  -21.4930 N   0  0  0  0  0  0  0  0  0  0  0  0
   -1.6130  -11.4460  -21.0640 C   0  0  0  0  0  0  0  0  0  0  0  0
   -2.4880  -11.8990  -20.3390 O   0  0  0  0  0  0  0  0  0  0  0  0
   -0.5150  -13.1630  -21.1510 H   0  0  0  0  0  0  0  0  0  0  0  0
    0.1850  -11.8590  -22.0690 H   0  0  0  0  0  0  0  0  0  0  0  0
  1  2  1  0  0  0  0
  1 22  1  0  0  0  0
  3  2  2  0  0  0  0
  4  3  1  0  0  0  0
  5  4  2  0  0  0  0
  5  6  1  0  0  0  0
  6  1  2  0  0  0  0
  7  8  1  0  0  0  0
  7  5  1  0  0  0  0
  8 11  1  0  0  0  0
  9  8  2  0  0  0  0
 10  7  1  0  0  0  0
 11 16  2  0  0  0  0
 11 12  1  0  0  0  0
 12 13  2  0  0  0  0
 14 13  1  0  0  0  0
 14 21  1  0  0  0  0
 15 17  1  0  0  0  0
 15 14  2  0  0  0  0
 16 15  1  0  0  0  0
 17 18  1  0  0  0  0
 18 21  1  0  0  0  0
 18 20  1  0  0  0  0
 19 18  1  0  0  0  0
 22 29  1  0  0  0  0
 23 36  1  0  0  0  0
 23 24  1  0  0  0  0
 25 24  2  0  0  0  0
 26 25  1  0  0  0  0
 27 33  1  0  0  0  0
 27 26  2  0  0  0  0
 28 27  1  0  0  0  0
 29 28  1  0  0  0  0
 29 34  1  0  0  0  0
 30 31  1  0  0  0  0
 30 28  2  0  0  0  0
 31 32  2  0  0  0  0
 32 33  1  0  0  0  0
 33 23  2  0  0  0  0
 35 38  1  0  0  0  0
 35 36  1  0  0  0  0
 36 37  2  0  0  0  0
 39 35  1  0  0  0  0
M  END
>  <minimizedAffinity>
-10.365798

$$$$

 OpenBabel10152419353D

 39 43  0  0  0  0  0  0  0  0999 V2000
   -0.5180   -5.7210  -26.8780 C   0  0  0  0  0  0  0  0  0  0  0  0
   -0.2930   -4.4160  -26.4210 C   0  0  0  0  0  3  0  0  0  0  0  0
    0.7120   -3.6450  -26.9890 C   0  0  0  0  0  3  0  0  0  0  0  0
    1.5150   -4.1790  -27.9980 C   0  0  0  0  0  3  0  0  0  0  0  0
    1.3670   -5.5040  -28.4140 C   0  0  0  0  0  0  0  0  0  0  0  0
    0.3150   -6.2550  -27.8760 C   0  0  0  0  0  3  0  0  0  0  0  0
    2.1760   -6.1350  -29.3820 N   0  0  0  0  0  0  0  0  0  0  0  0
    3.1040   -7.1510  -29.2900 C   0  0  0  0  0  0  0  0  0  0  0  0
    3.8550   -7.4030  -30.2290 O   0  0  0  0  0  0  0  0  0  0  0  0
    2.0910   -5.7950  -30.3340 H   0  0  0  0  0  0  0  0  0  0  0  0
    3.1790   -7.9950  -28.0840 C   0  0  0  0  0  0  0  0  0  0  0  0
    2.4450   -7.6060  -26.9440 C   0  0  0  0  0  3  0  0  0  0  0  0
    2.3570   -8.4630  -25.8440 C   0  0  0  0  0  3  0  0  0  0  0  0
    3.0120   -9.6750  -25.9250 C   0  0  0  0  0  0  0  0  0  0  0  0
    3.7760  -10.0230  -27.0190 C   0  0  0  0  0  0  0  0  0  0  0  0
    3.9050   -9.1930  -28.1100 C   0  0  0  0  0  3  0  0  0  0  0  0
    4.3120  -11.2680  -26.9050 O   0  0  0  0  0  0  0  0  0  0  0  0
    3.6880  -11.6930  -25.6850 C   0  0  0  0  0  0  0  0  0  0  0  0
    2.8200  -12.6950  -25.9780 F   0  0  0  0  0  0  0  0  0  0  0  0
    4.6370  -12.1970  -24.8620 F   0  0  0  0  0  0  0  0  0  0  0  0
    2.9700  -10.6620  -24.9890 O   0  0  0  0  0  0  0  0  0  0  0  0
   -1.7300   -6.4890  -26.4000 C   0  0  0  0  0  2  0  0  0  0  0  0
   -0.6570  -11.7990  -23.5390 C   0  0  0  0  0  0  0  0  0  0  0  0
   -0.1570  -12.5470  -24.6190 C   0  0  0  0  0  3  0  0  0  0  0  0
   -0.0770  -11.9670  -25.8720 C   0  0  0  0  0  3  0  0  0  0  0  0
   -0.4950  -10.6490  -26.0330 C   0  0  0  0  0  3  0  0  0  0  0  0
   -0.9830   -9.8810  -24.9380 C   0  0  0  0  0  0  0  0  0  0  0  0
   -1.3880   -8.5310  -25.0330 C   0  0  0  0  0  0  0  0  0  0  0  0
   -1.3300   -7.8760  -26.2580 N   0  0  0  0  0  0  0  0  0  0  0  0
   -1.8680   -7.8550  -23.9790 N   0  0  0  0  0  0  0  0  0  0  0  0
   -1.9100   -8.5060  -22.8160 C   0  0  0  0  0  3  0  0  0  0  0  0
   -1.5160   -9.7640  -22.6060 N   0  0  0  0  0  0  0  0  0  0  0  0
   -1.0730  -10.4660  -23.6640 C   0  0  0  0  0  0  0  0  0  0  0  0
   -0.5590   -8.1500  -26.8500 H   0  0  0  0  0  0  0  0  0  0  0  0
   -2.0130  -12.5020  -21.6770 N   0  0  0  0  0  0  0  0  0  0  0  0
   -0.7650  -12.4860  -22.2370 C   0  0  0  0  0  0  0  0  0  0  0  0
    0.2050  -12.9580  -21.6600 O   0  0  0  0  0  0  0  0  0  0  0  0
   -2.1140  -12.9600  -20.7810 H   0  0  0  0  0  0  0  0  0  0  0  0
   -2.8360  -12.1450  -22.1410 H   0  0  0  0  0  0  0  0  0  0  0  0
  1  2  1  0  0  0  0
  1 22  1  0  0  0  0
  3  2  2  0  0  0  0
  4  3  1  0  0  0  0
  5  4  2  0  0  0  0
  5  6  1  0  0  0  0
  6  1  2  0  0  0  0
  7  8  1  0  0  0  0
  7  5  1  0  0  0  0
  8 11  1  0  0  0  0
  9  8  2  0  0  0  0
 10  7  1  0  0  0  0
 11 12  1  0  0  0  0
 12 13  2  0  0  0  0
 14 13  1  0  0  0  0
 14 21  1  0  0  0  0
 15 17  1  0  0  0  0
 15 14  2  0  0  0  0
 16 11  2  0  0  0  0
 16 15  1  0  0  0  0
 17 18  1  0  0  0  0
 18 21  1  0  0  0  0
 18 20  1  0  0  0  0
 19 18  1  0  0  0  0
 22 29  1  0  0  0  0
 23 36  1  0  0  0  0
 24 23  2  0  0  0  0
 25 24  1  0  0  0  0
 26 25  2  0  0  0  0
 26 27  1  0  0  0  0
 27 33  1  0  0  0  0
 28 27  2  0  0  0  0
 28 30  1  0  0  0  0
 29 28  1  0  0  0  0
 30 31  2  0  0  0  0
 31 32  1  0  0  0  0
 33 23  1  0  0  0  0
 33 32  2  0  0  0  0
 34 29  1  0  0  0  0
 35 38  1  0  0  0  0
 36 35  1  0  0  0  0
 36 37  2  0  0  0  0
 39 35  1  0  0  0  0
M  END
>  <minimizedAffinity>
-9.09638786

$$$$

 OpenBabel10152419353D

 39 43  0  0  0  0  0  0  0  0999 V2000
   -1.4610   -7.0450  -23.0290 C   0  0  0  0  0  0  0  0  0  0  0  0
   -2.7240   -6.8860  -23.6130 C   0  0  0  0  0  3  0  0  0  0  0  0
   -3.7020   -7.8530  -23.4240 C   0  0  0  0  0  3  0  0  0  0  0  0
   -3.4200   -8.9940  -22.6720 C   0  0  0  0  0  3  0  0  0  0  0  0
   -2.1440   -9.2170  -22.1480 C   0  0  0  0  0  0  0  0  0  0  0  0
   -1.1810   -8.2120  -22.2970 C   0  0  0  0  0  3  0  0  0  0  0  0
   -1.7620  -10.3710  -21.4320 N   0  0  0  0  0  0  0  0  0  0  0  0
   -1.1460  -11.5390  -21.8240 C   0  0  0  0  0  0  0  0  0  0  0  0
   -1.1000  -12.5090  -21.0710 O   0  0  0  0  0  0  0  0  0  0  0  0
   -1.9760  -10.3780  -20.4400 H   0  0  0  0  0  0  0  0  0  0  0  0
   -0.4780  -11.6360  -23.1350 C   0  0  0  0  0  0  0  0  0  0  0  0
   -1.1680  -11.1740  -24.2760 C   0  0  0  0  0  3  0  0  0  0  0  0
   -0.5090  -11.0940  -25.5050 C   0  0  0  0  0  3  0  0  0  0  0  0
    0.8140  -11.4840  -25.5470 C   0  0  0  0  0  0  0  0  0  0  0  0
    1.4640  -11.9900  -24.4410 C   0  0  0  0  0  0  0  0  0  0  0  0
    0.8390  -12.1060  -23.2200 C   0  0  0  0  0  3  0  0  0  0  0  0
    2.7660  -12.2880  -24.6930 O   0  0  0  0  0  0  0  0  0  0  0  0
    2.8770  -11.7890  -26.0340 C   0  0  0  0  0  0  0  0  0  0  0  0
    3.7010  -10.7100  -26.0190 F   0  0  0  0  0  0  0  0  0  0  0  0
    3.4540  -12.7390  -26.8070 F   0  0  0  0  0  0  0  0  0  0  0  0
    1.6320  -11.3980  -26.6320 O   0  0  0  0  0  0  0  0  0  0  0  0
   -0.4630   -5.9090  -23.0700 C   0  0  0  0  0  2  0  0  0  0  0  0
    2.2440   -6.4810  -28.5360 C   0  0  0  0  0  0  0  0  0  0  0  0
    1.5840   -5.4540  -29.2310 C   0  0  0  0  0  3  0  0  0  0  0  0
    0.6130   -4.7080  -28.5850 C   0  0  0  0  0  3  0  0  0  0  0  0
    0.3150   -4.9950  -27.2570 C   0  0  0  0  0  3  0  0  0  0  0  0
    0.9960   -6.0220  -26.5430 C   0  0  0  0  0  0  0  0  0  0  0  0
    0.7610   -6.3350  -25.1850 C   0  0  0  0  0  0  0  0  0  0  0  0
   -0.1940   -5.6250  -24.4670 N   0  0  0  0  0  0  0  0  0  0  0  0
    1.4070   -7.3310  -24.5620 N   0  0  0  0  0  0  0  0  0  0  0  0
    2.3190   -7.9940  -25.2740 C   0  0  0  0  0  3  0  0  0  0  0  0
    2.6490   -7.7550  -26.5450 N   0  0  0  0  0  0  0  0  0  0  0  0
    1.9770   -6.7880  -27.1940 C   0  0  0  0  0  0  0  0  0  0  0  0
   -0.2750   -4.6490  -24.7170 H   0  0  0  0  0  0  0  0  0  0  0  0
    4.5040   -7.2770  -28.7840 N   0  0  0  0  0  0  0  0  0  0  0  0
    3.2340   -7.2760  -29.2910 C   0  0  0  0  0  0  0  0  0  0  0  0
    2.9570   -7.8470  -30.3370 O   0  0  0  0  0  0  0  0  0  0  0  0
    5.2030   -7.8090  -29.2850 H   0  0  0  0  0  0  0  0  0  0  0  0
    4.7550   -6.8380  -27.9100 H   0  0  0  0  0  0  0  0  0  0  0  0
  1  6  1  0  0  0  0
  2  3  1  0  0  0  0
  2  1  2  0  0  0  0
  3  4  2  0  0  0  0
  4  5  1  0  0  0  0
  5  7  1  0  0  0  0
  6  5  2  0  0  0  0
  7 10  1  0  0  0  0
  8  7  1  0  0  0  0
  8  9  2  0  0  0  0
 11  8  1  0  0  0  0
 12 11  2  0  0  0  0
 13 12  1  0  0  0  0
 14 13  2  0  0  0  0
 14 15  1  0  0  0  0
 15 16  2  0  0  0  0
 16 11  1  0  0  0  0
 17 15  1  0  0  0  0
 18 19  1  0  0  0  0
 18 17  1  0  0  0  0
 20 18  1  0  0  0  0
 21 18  1  0  0  0  0
 21 14  1  0  0  0  0
 22  1  1  0  0  0  0
 23 33  1  0  0  0  0
 24 25  1  0  0  0  0
 24 23  2  0  0  0  0
 25 26  2  0  0  0  0
 26 27  1  0  0  0  0
 27 28  1  0  0  0  0
 28 30  2  0  0  0  0
 28 29  1  0  0  0  0
 29 22  1  0  0  0  0
 31 30  1  0  0  0  0
 32 31  2  0  0  0  0
 33 32  1  0  0  0  0
 33 27  2  0  0  0  0
 34 29  1  0  0  0  0
 35 39  1  0  0  0  0
 36 35  1  0  0  0  0
 36 23  1  0  0  0  0
 37 36  2  0  0  0  0
 38 35  1  0  0  0  0
M  END
>  <minimizedAffinity>
-8.51107788

$$$$

 OpenBabel10152419353D

 39 43  0  0  0  0  0  0  0  0999 V2000
   -1.4370   -6.9010  -23.5280 C   0  0  0  0  0  0  0  0  0  0  0  0
   -2.6350   -6.8040  -24.2470 C   0  0  0  0  0  3  0  0  0  0  0  0
   -3.7610   -7.4930  -23.8170 C   0  0  0  0  0  3  0  0  0  0  0  0
   -3.6920   -8.3040  -22.6830 C   0  0  0  0  0  3  0  0  0  0  0  0
   -2.4890   -8.4850  -21.9960 C   0  0  0  0  0  0  0  0  0  0  0  0
   -1.3740   -7.7430  -22.4030 C   0  0  0  0  0  3  0  0  0  0  0  0
   -2.3230   -9.3330  -20.8810 N   0  0  0  0  0  0  0  0  0  0  0  0
   -1.7370  -10.5730  -20.7440 C   0  0  0  0  0  0  0  0  0  0  0  0
   -1.8930  -11.2310  -19.7180 O   0  0  0  0  0  0  0  0  0  0  0  0
   -2.7030   -9.0010  -20.0010 H   0  0  0  0  0  0  0  0  0  0  0  0
   -0.8650  -11.1160  -21.8000 C   0  0  0  0  0  0  0  0  0  0  0  0
   -0.1860  -12.3280  -21.5540 C   0  0  0  0  0  3  0  0  0  0  0  0
    0.5150  -12.9580  -22.5860 C   0  0  0  0  0  3  0  0  0  0  0  0
    0.5130  -12.3490  -23.8240 C   0  0  0  0  0  0  0  0  0  0  0  0
   -0.1040  -11.1340  -24.0410 C   0  0  0  0  0  0  0  0  0  0  0  0
   -0.7820  -10.4730  -23.0420 C   0  0  0  0  0  3  0  0  0  0  0  0
   -0.0080  -10.7260  -25.3350 O   0  0  0  0  0  0  0  0  0  0  0  0
    0.6190  -11.8810  -25.9110 C   0  0  0  0  0  0  0  0  0  0  0  0
   -0.2710  -12.4780  -26.7440 F   0  0  0  0  0  0  0  0  0  0  0  0
    1.6750  -11.4780  -26.6560 F   0  0  0  0  0  0  0  0  0  0  0  0
    1.0690  -12.8550  -24.9580 O   0  0  0  0  0  0  0  0  0  0  0  0
   -0.2720   -6.0040  -23.8800 C   0  0  0  0  0  2  0  0  0  0  0  0
    3.4140   -8.1580  -28.2740 C   0  0  0  0  0  0  0  0  0  0  0  0
    4.0520   -9.1850  -27.5590 C   0  0  0  0  0  3  0  0  0  0  0  0
    3.7350   -9.3880  -26.2270 C   0  0  0  0  0  3  0  0  0  0  0  0
    2.7870   -8.5660  -25.6270 C   0  0  0  0  0  3  0  0  0  0  0  0
    2.1230   -7.5360  -26.3530 C   0  0  0  0  0  0  0  0  0  0  0  0
    1.1280   -6.6950  -25.8080 C   0  0  0  0  0  0  0  0  0  0  0  0
    0.7500   -6.8420  -24.4790 N   0  0  0  0  0  0  0  0  0  0  0  0
    0.5490   -5.7190  -26.5230 N   0  0  0  0  0  0  0  0  0  0  0  0
    0.9290   -5.6010  -27.7960 C   0  0  0  0  0  3  0  0  0  0  0  0
    1.8260   -6.3660  -28.4220 N   0  0  0  0  0  0  0  0  0  0  0  0
    2.4450   -7.3200  -27.7040 C   0  0  0  0  0  0  0  0  0  0  0  0
    0.7630   -7.7930  -24.1360 H   0  0  0  0  0  0  0  0  0  0  0  0
    4.4830   -6.7840  -29.9390 N   0  0  0  0  0  0  0  0  0  0  0  0
    3.8290   -7.9560  -29.6770 C   0  0  0  0  0  0  0  0  0  0  0  0
    3.5530   -8.7520  -30.5640 O   0  0  0  0  0  0  0  0  0  0  0  0
    4.7730   -6.6170  -30.8930 H   0  0  0  0  0  0  0  0  0  0  0  0
    4.7480   -6.1220  -29.2240 H   0  0  0  0  0  0  0  0  0  0  0  0
  1  6  1  0  0  0  0
  2  3  1  0  0  0  0
  2  1  2  0  0  0  0
  3  4  2  0  0  0  0
  4  5  1  0  0  0  0
  5  7  1  0  0  0  0
  6  5  2  0  0  0  0
  7  8  1  0  0  0  0
  7 10  1  0  0  0  0
  8  9  2  0  0  0  0
 11 12  1  0  0  0  0
 11  8  1  0  0  0  0
 13 12  2  0  0  0  0
 14 13  1  0  0  0  0
 15 14  2  0  0  0  0
 15 16  1  0  0  0  0
 16 11  2  0  0  0  0
 17 15  1  0  0  0  0
 18 17  1  0  0  0  0
 18 21  1  0  0  0  0
 19 18  1  0  0  0  0
 20 18  1  0  0  0  0
 21 14  1  0  0  0  0
 22  1  1  0  0  0  0
 23 33  2  0  0  0  0
 23 24  1  0  0  0  0
 24 25  2  0  0  0  0
 25 26  1  0  0  0  0
 27 28  1  0  0  0  0
 27 26  2  0  0  0  0
 28 29  1  0  0  0  0
 29 34  1  0  0  0  0
 29 22  1  0  0  0  0
 30 28  2  0  0  0  0
 31 30  1  0  0  0  0
 32 31  2  0  0  0  0
 32 33  1  0  0  0  0
 33 27  1  0  0  0  0
 35 36  1  0  0  0  0
 35 39  1  0  0  0  0
 36 23  1  0  0  0  0
 37 36  2  0  0  0  0
 38 35  1  0  0  0  0
M  END
>  <minimizedAffinity>
-8.13634968

$$$$

 OpenBabel10152419353D

 39 43  0  0  0  0  0  0  0  0999 V2000
   -1.7020   -9.6310  -21.9910 C   0  0  0  0  0  0  0  0  0  0  0  0
   -1.7030  -10.1550  -20.6930 C   0  0  0  0  0  3  0  0  0  0  0  0
   -1.2590  -11.4510  -20.4660 C   0  0  0  0  0  3  0  0  0  0  0  0
   -0.8330  -12.2400  -21.5360 C   0  0  0  0  0  3  0  0  0  0  0  0
   -0.8990  -11.7710  -22.8500 C   0  0  0  0  0  0  0  0  0  0  0  0
   -1.2960  -10.4460  -23.0630 C   0  0  0  0  0  3  0  0  0  0  0  0
   -0.5470  -12.5270  -23.9880 N   0  0  0  0  0  0  0  0  0  0  0  0
    0.0980  -12.1880  -25.1580 C   0  0  0  0  0  0  0  0  0  0  0  0
    0.1110  -12.9590  -26.1140 O   0  0  0  0  0  0  0  0  0  0  0  0
   -0.8120  -13.5060  -23.9800 H   0  0  0  0  0  0  0  0  0  0  0  0
    0.8340  -10.9160  -25.2720 C   0  0  0  0  0  0  0  0  0  0  0  0
    1.2580  -10.2770  -24.0880 C   0  0  0  0  0  3  0  0  0  0  0  0
    2.0990   -9.1640  -24.1580 C   0  0  0  0  0  3  0  0  0  0  0  0
    2.4800   -8.7290  -25.4110 C   0  0  0  0  0  0  0  0  0  0  0  0
    2.0140   -9.3240  -26.5650 C   0  0  0  0  0  0  0  0  0  0  0  0
    1.1650  -10.4070  -26.5340 C   0  0  0  0  0  3  0  0  0  0  0  0
    2.5330   -8.7580  -27.6870 O   0  0  0  0  0  0  0  0  0  0  0  0
    3.4630   -7.8420  -27.0930 C   0  0  0  0  0  0  0  0  0  0  0  0
    4.7200   -8.2600  -27.3900 F   0  0  0  0  0  0  0  0  0  0  0  0
    3.2920   -6.6210  -27.6530 F   0  0  0  0  0  0  0  0  0  0  0  0
    3.3540   -7.7180  -25.6680 O   0  0  0  0  0  0  0  0  0  0  0  0
   -1.9990   -8.1650  -22.2140 C   0  0  0  0  0  2  0  0  0  0  0  0
   -0.1840   -4.6830  -26.9160 C   0  0  0  0  0  0  0  0  0  0  0  0
   -0.1900   -5.6490  -27.9360 C   0  0  0  0  0  3  0  0  0  0  0  0
   -0.5340   -6.9550  -27.6370 C   0  0  0  0  0  3  0  0  0  0  0  0
   -0.8680   -7.2800  -26.3260 C   0  0  0  0  0  3  0  0  0  0  0  0
   -0.8830   -6.3010  -25.2930 C   0  0  0  0  0  0  0  0  0  0  0  0
   -1.2470   -6.5650  -23.9530 C   0  0  0  0  0  0  0  0  0  0  0  0
   -1.6120   -7.8510  -23.5760 N   0  0  0  0  0  0  0  0  0  0  0  0
   -1.2190   -5.6150  -23.0070 N   0  0  0  0  0  0  0  0  0  0  0  0
   -0.8670   -4.3890  -23.3970 C   0  0  0  0  0  3  0  0  0  0  0  0
   -0.5460   -4.0220  -24.6390 N   0  0  0  0  0  0  0  0  0  0  0  0
   -0.5280   -4.9740  -25.5880 C   0  0  0  0  0  0  0  0  0  0  0  0
   -2.1100   -8.3760  -24.2830 H   0  0  0  0  0  0  0  0  0  0  0  0
   -0.5500   -2.3040  -26.8150 N   0  0  0  0  0  0  0  0  0  0  0  0
    0.2400   -3.3170  -27.2850 C   0  0  0  0  0  0  0  0  0  0  0  0
    1.1980   -3.1010  -28.0150 O   0  0  0  0  0  0  0  0  0  0  0  0
   -0.2860   -1.3580  -27.0580 H   0  0  0  0  0  0  0  0  0  0  0  0
   -1.3290   -2.4500  -26.1900 H   0  0  0  0  0  0  0  0  0  0  0  0
  1  2  1  0  0  0  0
  2  3  2  0  0  0  0
  4  3  1  0  0  0  0
  5  4  2  0  0  0  0
  6  5  1  0  0  0  0
  6  1  2  0  0  0  0
  7 10  1  0  0  0  0
  7  5  1  0  0  0  0
  8  7  1  0  0  0  0
  9  8  2  0  0  0  0
 11  8  1  0  0  0  0
 11 12  1  0  0  0  0
 13 12  2  0  0  0  0
 14 13  1  0  0  0  0
 15 16  1  0  0  0  0
 15 14  2  0  0  0  0
 16 11  2  0  0  0  0
 17 18  1  0  0  0  0
 17 15  1  0  0  0  0
 18 21  1  0  0  0  0
 19 18  1  0  0  0  0
 20 18  1  0  0  0  0
 21 14  1  0  0  0  0
 22  1  1  0  0  0  0
 23 33  1  0  0  0  0
 24 25  1  0  0  0  0
 24 23  2  0  0  0  0
 25 26  2  0  0  0  0
 26 27  1  0  0  0  0
 27 28  1  0  0  0  0
 28 29  1  0  0  0  0
 28 30  2  0  0  0  0
 29 22  1  0  0  0  0
 31 30  1  0  0  0  0
 32 31  2  0  0  0  0
 33 27  2  0  0  0  0
 33 32  1  0  0  0  0
 34 29  1  0  0  0  0
 35 39  1  0  0  0  0
 36 23  1  0  0  0  0
 36 35  1  0  0  0  0
 37 36  2  0  0  0  0
 38 35  1  0  0  0  0
M  END
>  <minimizedAffinity>
-7.97328568

$$$$
