
 OpenBabel10152419353D

 39 43  0  0  0  0  0  0  0  0999 V2000
   -1.4610   -7.0450  -23.0290 C   0  0  0  0  0  0  0  0  0  0  0  0
   -2.7240   -6.8860  -23.6130 C   0  0  0  0  0  3  0  0  0  0  0  0
   -3.7020   -7.8530  -23.4240 C   0  0  0  0  0  3  0  0  0  0  0  0
   -3.4200   -8.9940  -22.6720 C   0  0  0  0  0  3  0  0  0  0  0  0
   -2.1440   -9.2170  -22.1480 C   0  0  0  0  0  0  0  0  0  0  0  0
   -1.1810   -8.2120  -22.2970 C   0  0  0  0  0  3  0  0  0  0  0  0
   -1.7620  -10.3710  -21.4320 N   0  0  0  0  0  0  0  0  0  0  0  0
   -1.1460  -11.5390  -21.8240 C   0  0  0  0  0  0  0  0  0  0  0  0
   -1.1000  -12.5090  -21.0710 O   0  0  0  0  0  0  0  0  0  0  0  0
   -1.9760  -10.3780  -20.4400 H   0  0  0  0  0  0  0  0  0  0  0  0
   -0.4780  -11.6360  -23.1350 C   0  0  0  0  0  0  0  0  0  0  0  0
   -1.1680  -11.1740  -24.2760 C   0  0  0  0  0  3  0  0  0  0  0  0
   -0.5090  -11.0940  -25.5050 C   0  0  0  0  0  3  0  0  0  0  0  0
    0.8140  -11.4840  -25.5470 C   0  0  0  0  0  0  0  0  0  0  0  0
    1.4640  -11.9900  -24.4410 C   0  0  0  0  0  0  0  0  0  0  0  0
    0.8390  -12.1060  -23.2200 C   0  0  0  0  0  3  0  0  0  0  0  0
    2.7660  -12.2880  -24.6930 O   0  0  0  0  0  0  0  0  0  0  0  0
    2.8770  -11.7890  -26.0340 C   0  0  0  0  0  0  0  0  0  0  0  0
    3.7010  -10.7100  -26.0190 F   0  0  0  0  0  0  0  0  0  0  0  0
    3.4540  -12.7390  -26.8070 F   0  0  0  0  0  0  0  0  0  0  0  0
    1.6320  -11.3980  -26.6320 O   0  0  0  0  0  0  0  0  0  0  0  0
   -0.4630   -5.9090  -23.0700 C   0  0  0  0  0  2  0  0  0  0  0  0
    2.2440   -6.4810  -28.5360 C   0  0  0  0  0  0  0  0  0  0  0  0
    1.5840   -5.4540  -29.2310 C   0  0  0  0  0  3  0  0  0  0  0  0
    0.6130   -4.7080  -28.5850 C   0  0  0  0  0  3  0  0  0  0  0  0
    0.3150   -4.9950  -27.2570 C   0  0  0  0  0  3  0  0  0  0  0  0
    0.9960   -6.0220  -26.5430 C   0  0  0  0  0  0  0  0  0  0  0  0
    0.7610   -6.3350  -25.1850 C   0  0  0  0  0  0  0  0  0  0  0  0
   -0.1940   -5.6250  -24.4670 N   0  0  0  0  0  0  0  0  0  0  0  0
    1.4070   -7.3310  -24.5620 N   0  0  0  0  0  0  0  0  0  0  0  0
    2.3190   -7.9940  -25.2740 C   0  0  0  0  0  3  0  0  0  0  0  0
    2.6490   -7.7550  -26.5450 N   0  0  0  0  0  0  0  0  0  0  0  0
    1.9770   -6.7880  -27.1940 C   0  0  0  0  0  0  0  0  0  0  0  0
   -0.2750   -4.6490  -24.7170 H   0  0  0  0  0  0  0  0  0  0  0  0
    4.5040   -7.2770  -28.7840 N   0  0  0  0  0  0  0  0  0  0  0  0
    3.2340   -7.2760  -29.2910 C   0  0  0  0  0  0  0  0  0  0  0  0
    2.9570   -7.8470  -30.3370 O   0  0  0  0  0  0  0  0  0  0  0  0
    5.2030   -7.8090  -29.2850 H   0  0  0  0  0  0  0  0  0  0  0  0
    4.7550   -6.8380  -27.9100 H   0  0  0  0  0  0  0  0  0  0  0  0
  1  6  1  0  0  0  0
  2  3  1  0  0  0  0
  2  1  2  0  0  0  0
  3  4  2  0  0  0  0
  4  5  1  0  0  0  0
  5  7  1  0  0  0  0
  6  5  2  0  0  0  0
  7 10  1  0  0  0  0
  8  7  1  0  0  0  0
  8  9  2  0  0  0  0
 11  8  1  0  0  0  0
 12 11  2  0  0  0  0
 13 12  1  0  0  0  0
 14 13  2  0  0  0  0
 14 15  1  0  0  0  0
 15 16  2  0  0  0  0
 16 11  1  0  0  0  0
 17 15  1  0  0  0  0
 18 19  1  0  0  0  0
 18 17  1  0  0  0  0
 20 18  1  0  0  0  0
 21 18  1  0  0  0  0
 21 14  1  0  0  0  0
 22  1  1  0  0  0  0
 23 33  1  0  0  0  0
 24 25  1  0  0  0  0
 24 23  2  0  0  0  0
 25 26  2  0  0  0  0
 26 27  1  0  0  0  0
 27 28  1  0  0  0  0
 28 30  2  0  0  0  0
 28 29  1  0  0  0  0
 29 22  1  0  0  0  0
 31 30  1  0  0  0  0
 32 31  2  0  0  0  0
 33 32  1  0  0  0  0
 33 27  2  0  0  0  0
 34 29  1  0  0  0  0
 35 39  1  0  0  0  0
 36 35  1  0  0  0  0
 36 23  1  0  0  0  0
 37 36  2  0  0  0  0
 38 35  1  0  0  0  0
M  END
>  <minimizedAffinity>
-8.51107788

$$$$
