REMARK  Name = 
REMARK  5 active torsions:
REMARK  status: ('A' for Active; 'I' for Inactive)
REMARK    1  A    between atoms: C_2  and  C_4
REMARK    2  A    between atoms: N_10  and  C_11
REMARK    3  A    between atoms: C_11  and  C_12
REMARK    4  A    between atoms: C_16  and  N_17
REMARK    5  A    between atoms: C_18  and  C_20
REMARK                            x       y       z     vdW  Elec       q    Type
REMARK                         _______ _______ _______ _____ _____    ______ ____
ROOT
ATOM      1  C   UNL     1       1.954  -1.923  -8.969  0.00  0.00    -0.029 A 
ATOM      2  C   UNL     1       2.855  -2.934  -9.326  0.00  0.00    +0.005 A 
ATOM      3  C   UNL     1       4.064  -2.607  -9.925  0.00  0.00    +0.002 A 
ATOM      4  C   UNL     1       4.371  -1.272 -10.194  0.00  0.00    +0.023 A 
ATOM      5  C   UNL     1       3.456  -0.252  -9.924  0.00  0.00    +0.034 A 
ATOM      6  C   UNL     1       2.264  -0.585  -9.270  0.00  0.00    +0.028 A 
ENDROOT
BRANCH   5   7
ATOM      7  N   UNL     1       3.665   1.111 -10.222  0.00  0.00    -0.281 N 
ATOM      8  C   UNL     1       4.574   1.749 -11.039  0.00  0.00    +0.248 C 
ATOM      9  O   UNL     1       4.719   2.968 -10.986  0.00  0.00    -0.270 OA
ATOM     10  H   UNL     1       3.054   1.774  -9.757  0.00  0.00    +0.155 HD
BRANCH   8  11
ATOM     11  C   UNL     1       5.354   0.992 -12.034  0.00  0.00    +0.041 A 
ATOM     12  C   UNL     1       6.762   1.039 -11.961  0.00  0.00    +0.017 A 
ATOM     13  C   UNL     1       7.532   0.206 -12.777  0.00  0.00    +0.050 A 
ATOM     14  C   UNL     1       6.863  -0.639 -13.639  0.00  0.00    +0.173 A 
ATOM     15  C   UNL     1       5.488  -0.637 -13.746  0.00  0.00    +0.173 A 
ATOM     16  C   UNL     1       4.699   0.188 -12.976  0.00  0.00    +0.062 A 
ATOM     17  O   UNL     1       5.034  -1.562 -14.633  0.00  0.00    -0.395 OA
ATOM     18  C   UNL     1       6.268  -2.217 -14.958  0.00  0.00    +0.589 C 
ATOM     19  F   UNL     1       6.223  -3.480 -14.462  0.00  0.00    -0.125 F 
ATOM     20  F   UNL     1       6.373  -2.307 -16.305  0.00  0.00    -0.125 F 
ATOM     21  O   UNL     1       7.442  -1.571 -14.444  0.00  0.00    -0.395 OA
ENDBRANCH   8  11
ENDBRANCH   5   7
BRANCH   1  22
ATOM     22  C   UNL     1       0.731  -2.259  -8.145  0.00  0.00    +0.138 C 
BRANCH  22  29
ATOM     23  C   UNL     1       0.928  -1.307  -2.096  0.00  0.00    +0.063 A 
ATOM     24  C   UNL     1       1.961  -2.196  -1.755  0.00  0.00    +0.015 A 
ATOM     25  C   UNL     1       2.557  -2.961  -2.742  0.00  0.00    +0.002 A 
ATOM     26  C   UNL     1       2.116  -2.829  -4.055  0.00  0.00    +0.013 A 
ATOM     27  C   UNL     1       1.083  -1.915  -4.409  0.00  0.00    +0.041 A 
ATOM     28  C   UNL     1       0.619  -1.713  -5.728  0.00  0.00    +0.130 A 
ATOM     29  N   UNL     1       1.173  -2.439  -6.775  0.00  0.00    -0.324 N 
ATOM     30  N   UNL     1      -0.377  -0.860  -6.010  0.00  0.00    -0.220 NA
ATOM     31  C   UNL     1      -0.889  -0.175  -4.987  0.00  0.00    +0.223 A 
ATOM     32  N   UNL     1      -0.499  -0.257  -3.713  0.00  0.00    -0.235 NA
ATOM     33  C   UNL     1       0.469  -1.140  -3.411  0.00  0.00    +0.088 A 
ATOM     34  H   UNL     1       2.159  -2.640  -6.678  0.00  0.00    +0.148 HD
BRANCH  23  36
ATOM     35  N   UNL     1       1.132   0.251  -0.270  0.00  0.00    -0.325 N 
ATOM     36  C   UNL     1       0.296  -0.554  -0.994  0.00  0.00    +0.244 C 
ATOM     37  O   UNL     1      -0.885  -0.685  -0.702  0.00  0.00    -0.270 OA
ATOM     38  H   UNL     1       0.726   0.773   0.495  0.00  0.00    +0.145 HD
ATOM     39  H   UNL     1       2.103   0.399  -0.504  0.00  0.00    +0.145 HD
ENDBRANCH  23  36
ENDBRANCH  22  29
ENDBRANCH   1  22
TORSDOF 5
