
 OpenBabel10152418323D

 40 43  0  0  0  0  0  0  0  0999 V2000
    4.6540  -10.4860  -27.3110 C   0  0  0  0  0  0  0  0  0  0  0  0
    4.4210  -11.2210  -28.4730 C   0  0  0  0  0  3  0  0  0  0  0  0
    3.9270  -10.5790  -29.6020 C   0  0  0  0  0  3  0  0  0  0  0  0
    3.7010   -9.2020  -29.5780 C   0  0  0  0  0  3  0  0  0  0  0  0
    4.0480   -8.4200  -28.4670 C   0  0  0  0  0  0  0  0  0  0  0  0
    4.5510   -9.0860  -27.3400 C   0  0  0  0  0  3  0  0  0  0  0  0
    4.0430  -11.5640  -25.1150 C   0  0  0  0  0  0  0  0  0  0  0  0
    4.4680  -12.0380  -24.0650 O   0  0  0  0  0  0  0  0  0  0  0  0
    4.9100  -11.2110  -26.1330 N   0  0  0  0  0  0  0  0  0  0  0  0
    5.8300  -11.6220  -26.0240 H   0  0  0  0  0  0  0  0  0  0  0  0
   -0.2020  -11.5730  -25.5580 C   0  0  0  0  0  0  0  0  0  0  0  0
    0.6250  -12.0280  -26.5950 C   0  0  0  0  0  3  0  0  0  0  0  0
    2.0120  -11.9670  -26.4760 C   0  0  0  0  0  3  0  0  0  0  0  0
    2.5760  -11.4510  -25.3110 C   0  0  0  0  0  0  0  0  0  0  0  0
    1.7500  -10.9140  -24.3110 C   0  0  0  0  0  3  0  0  0  0  0  0
    0.3500  -11.0280  -24.3920 C   0  0  0  0  0  0  0  0  0  0  0  0
   -0.4880  -10.6330  -23.2040 C   0  0  0  0  0  0  0  0  0  0  0  0
   -0.4750  -11.5550  -22.2020 F   0  0  0  0  0  0  0  0  0  0  0  0
   -0.0790   -9.4670  -22.6220 F   0  0  0  0  0  0  0  0  0  0  0  0
   -1.7960  -10.4350  -23.5260 F   0  0  0  0  0  0  0  0  0  0  0  0
   -2.2500  -10.7780  -26.3670 C   0  0  0  0  0  1  0  0  0  0  0  0
   -1.5360  -11.8290  -25.7190 O   0  0  0  0  0  0  0  0  0  0  0  0
    3.7880   -6.9180  -28.4200 C   0  0  0  0  0  2  0  0  0  0  0  0
    2.6230   -6.5300  -29.1950 N   0  0  0  0  0  0  0  0  0  0  0  0
    2.4630   -6.9650  -30.0880 H   0  0  0  0  0  0  0  0  0  0  0  0
    1.6230   -5.7960  -28.5740 C   0  0  0  0  0  0  0  0  0  0  0  0
    1.5790   -4.4820  -28.8550 N   0  0  0  0  0  0  0  0  0  0  0  0
    0.8900   -3.7090  -28.0190 C   0  0  0  0  0  3  0  0  0  0  0  0
    0.3240   -4.1150  -26.8810 N   0  0  0  0  0  0  0  0  0  0  0  0
    0.3280   -5.4370  -26.6200 C   0  0  0  0  0  0  0  0  0  0  0  0
   -0.1890   -5.9490  -25.4260 C   0  0  0  0  0  0  0  0  0  0  0  0
   -0.2880   -7.3220  -25.1590 C   0  0  0  0  0  3  0  0  0  0  0  0
    0.2000   -8.2310  -26.0820 C   0  0  0  0  0  3  0  0  0  0  0  0
    0.8250   -7.7520  -27.2300 C   0  0  0  0  0  3  0  0  0  0  0  0
    0.9050   -6.3600  -27.5030 C   0  0  0  0  0  0  0  0  0  0  0  0
   -0.5150   -5.0420  -24.3120 C   0  0  0  0  0  0  0  0  0  0  0  0
   -0.2760   -5.5500  -23.0640 N   0  0  0  0  0  0  0  0  0  0  0  0
   -1.0700   -3.9670  -24.4940 O   0  0  0  0  0  0  0  0  0  0  0  0
   -0.5170   -4.9860  -22.2610 H   0  0  0  0  0  0  0  0  0  0  0  0
    0.1560   -6.4520  -22.9150 H   0  0  0  0  0  0  0  0  0  0  0  0
  1  9  1  0  0  0  0
  2  1  2  0  0  0  0
  3  4  2  0  0  0  0
  3  2  1  0  0  0  0
  4  5  1  0  0  0  0
  5 23  1  0  0  0  0
  5  6  2  0  0  0  0
  6  1  1  0  0  0  0
  7  8  2  0  0  0  0
  9 10  1  0  0  0  0
  9  7  1  0  0  0  0
 11 16  1  0  0  0  0
 12 13  1  0  0  0  0
 12 11  2  0  0  0  0
 13 14  2  0  0  0  0
 14  7  1  0  0  0  0
 14 15  1  0  0  0  0
 16 15  2  0  0  0  0
 16 17  1  0  0  0  0
 17 19  1  0  0  0  0
 17 18  1  0  0  0  0
 20 17  1  0  0  0  0
 21 22  1  0  0  0  0
 22 11  1  0  0  0  0
 24 26  1  0  0  0  0
 24 23  1  0  0  0  0
 25 24  1  0  0  0  0
 26 35  1  0  0  0  0
 27 26  2  0  0  0  0
 27 28  1  0  0  0  0
 28 29  2  0  0  0  0
 29 30  1  0  0  0  0
 30 31  1  0  0  0  0
 31 32  2  0  0  0  0
 31 36  1  0  0  0  0
 33 32  1  0  0  0  0
 34 33  2  0  0  0  0
 35 34  1  0  0  0  0
 35 30  2  0  0  0  0
 36 37  1  0  0  0  0
 37 40  1  0  0  0  0
 37 39  1  0  0  0  0
 38 36  2  0  0  0  0
M  END
>  <minimizedAffinity>
-6.59495687

$$$$
