
 OpenBabel10152418323D

 40 43  0  0  0  0  0  0  0  0999 V2000
    0.7050  -10.7520  -26.1840 C   0  0  0  0  0  0  0  0  0  0  0  0
    1.1670  -11.8720  -25.4920 C   0  0  0  0  0  3  0  0  0  0  0  0
    2.5320  -12.0390  -25.2930 C   0  0  0  0  0  3  0  0  0  0  0  0
    3.4270  -11.0720  -25.7530 C   0  0  0  0  0  3  0  0  0  0  0  0
    2.9820   -9.8760  -26.3350 C   0  0  0  0  0  0  0  0  0  0  0  0
    1.6000   -9.7250  -26.5210 C   0  0  0  0  0  3  0  0  0  0  0  0
   -1.7810  -10.9640  -25.8190 C   0  0  0  0  0  0  0  0  0  0  0  0
   -2.8750  -11.1160  -26.3550 O   0  0  0  0  0  0  0  0  0  0  0  0
   -0.6450  -10.7530  -26.5780 N   0  0  0  0  0  0  0  0  0  0  0  0
   -0.8560  -10.4790  -27.5320 H   0  0  0  0  0  0  0  0  0  0  0  0
   -1.2220  -10.7680  -21.5920 C   0  0  0  0  0  0  0  0  0  0  0  0
   -0.9620  -11.9550  -22.2920 C   0  0  0  0  0  3  0  0  0  0  0  0
   -1.2040  -12.0390  -23.6620 C   0  0  0  0  0  3  0  0  0  0  0  0
   -1.7050  -10.9280  -24.3360 C   0  0  0  0  0  0  0  0  0  0  0  0
   -2.0490   -9.7690  -23.6210 C   0  0  0  0  0  3  0  0  0  0  0  0
   -1.7510   -9.6510  -22.2510 C   0  0  0  0  0  0  0  0  0  0  0  0
   -1.9390   -8.3200  -21.5720 C   0  0  0  0  0  0  0  0  0  0  0  0
   -2.2280   -8.4250  -20.2460 F   0  0  0  0  0  0  0  0  0  0  0  0
   -0.8300   -7.5240  -21.6350 F   0  0  0  0  0  0  0  0  0  0  0  0
   -2.9420   -7.5840  -22.1260 F   0  0  0  0  0  0  0  0  0  0  0  0
   -0.8140  -12.0330  -19.6640 C   0  0  0  0  0  1  0  0  0  0  0  0
   -0.7980  -10.7520  -20.2910 O   0  0  0  0  0  0  0  0  0  0  0  0
    3.9490   -8.8210  -26.8590 C   0  0  0  0  0  2  0  0  0  0  0  0
    3.5720   -7.4750  -26.4630 N   0  0  0  0  0  0  0  0  0  0  0  0
    4.1980   -6.9440  -25.8810 H   0  0  0  0  0  0  0  0  0  0  0  0
    2.5150   -6.8580  -27.1160 C   0  0  0  0  0  0  0  0  0  0  0  0
    2.7320   -6.4850  -28.3900 N   0  0  0  0  0  0  0  0  0  0  0  0
    1.8950   -5.5880  -28.9060 C   0  0  0  0  0  3  0  0  0  0  0  0
    0.9240   -4.9640  -28.2380 N   0  0  0  0  0  0  0  0  0  0  0  0
    0.6770   -5.3670  -26.9760 C   0  0  0  0  0  0  0  0  0  0  0  0
   -0.2810   -4.7330  -26.1780 C   0  0  0  0  0  0  0  0  0  0  0  0
   -0.6330   -5.1820  -24.8980 C   0  0  0  0  0  3  0  0  0  0  0  0
    0.0320   -6.2670  -24.3520 C   0  0  0  0  0  3  0  0  0  0  0  0
    1.0700   -6.8510  -25.0720 C   0  0  0  0  0  3  0  0  0  0  0  0
    1.4080   -6.4030  -26.3770 C   0  0  0  0  0  0  0  0  0  0  0  0
   -0.8620   -3.4470  -26.6010 C   0  0  0  0  0  0  0  0  0  0  0  0
   -0.0110   -2.6290  -27.2940 N   0  0  0  0  0  0  0  0  0  0  0  0
   -1.9800   -3.0940  -26.2500 O   0  0  0  0  0  0  0  0  0  0  0  0
   -0.3440   -1.7170  -27.5750 H   0  0  0  0  0  0  0  0  0  0  0  0
    0.9240   -2.9110  -27.5570 H   0  0  0  0  0  0  0  0  0  0  0  0
  1  2  1  0  0  0  0
  2  3  2  0  0  0  0
  4  3  1  0  0  0  0
  5  4  2  0  0  0  0
  6  5  1  0  0  0  0
  6  1  2  0  0  0  0
  7 14  1  0  0  0  0
  8  7  2  0  0  0  0
  9  1  1  0  0  0  0
  9  7  1  0  0  0  0
 10  9  1  0  0  0  0
 11 22  1  0  0  0  0
 12 11  2  0  0  0  0
 13 12  1  0  0  0  0
 14 13  2  0  0  0  0
 14 15  1  0  0  0  0
 15 16  2  0  0  0  0
 16 11  1  0  0  0  0
 16 17  1  0  0  0  0
 17 18  1  0  0  0  0
 19 17  1  0  0  0  0
 20 17  1  0  0  0  0
 22 21  1  0  0  0  0
 23 24  1  0  0  0  0
 23  5  1  0  0  0  0
 24 25  1  0  0  0  0
 26 24  1  0  0  0  0
 26 35  1  0  0  0  0
 27 26  2  0  0  0  0
 28 27  1  0  0  0  0
 28 29  2  0  0  0  0
 29 30  1  0  0  0  0
 30 35  2  0  0  0  0
 30 31  1  0  0  0  0
 31 32  2  0  0  0  0
 32 33  1  0  0  0  0
 34 33  2  0  0  0  0
 35 34  1  0  0  0  0
 36 38  2  0  0  0  0
 36 31  1  0  0  0  0
 37 36  1  0  0  0  0
 39 37  1  0  0  0  0
 40 37  1  0  0  0  0
M  END
>  <minimizedAffinity>
-6.20688152

$$$$
