
 OpenBabel10152418323D

 40 43  0  0  0  0  0  0  0  0999 V2000
    1.0370  -11.4880  -25.7490 C   0  0  0  0  0  0  0  0  0  0  0  0
    1.3330  -11.9120  -24.4540 C   0  0  0  0  0  3  0  0  0  0  0  0
    2.6610  -12.0390  -24.0610 C   0  0  0  0  0  3  0  0  0  0  0  0
    3.6850  -11.7100  -24.9500 C   0  0  0  0  0  3  0  0  0  0  0  0
    3.4140  -11.1590  -26.2120 C   0  0  0  0  0  0  0  0  0  0  0  0
    2.0690  -11.0330  -26.5860 C   0  0  0  0  0  3  0  0  0  0  0  0
   -1.4410  -11.0320  -25.6690 C   0  0  0  0  0  0  0  0  0  0  0  0
   -2.5520  -11.3970  -26.0440 O   0  0  0  0  0  0  0  0  0  0  0  0
   -0.2970  -11.6170  -26.1770 N   0  0  0  0  0  0  0  0  0  0  0  0
   -0.4690  -12.1380  -27.0300 H   0  0  0  0  0  0  0  0  0  0  0  0
   -1.5050   -7.7370  -22.9570 C   0  0  0  0  0  0  0  0  0  0  0  0
   -1.4520   -7.5200  -24.3410 C   0  0  0  0  0  3  0  0  0  0  0  0
   -1.3680   -8.5950  -25.2250 C   0  0  0  0  0  3  0  0  0  0  0  0
   -1.3400   -9.8930  -24.7210 C   0  0  0  0  0  0  0  0  0  0  0  0
   -1.3020  -10.1060  -23.3340 C   0  0  0  0  0  3  0  0  0  0  0  0
   -1.4510   -9.0350  -22.4340 C   0  0  0  0  0  0  0  0  0  0  0  0
   -1.6200   -9.3280  -20.9660 C   0  0  0  0  0  0  0  0  0  0  0  0
   -1.3510  -10.6210  -20.6380 F   0  0  0  0  0  0  0  0  0  0  0  0
   -0.8000   -8.5780  -20.1720 F   0  0  0  0  0  0  0  0  0  0  0  0
   -2.8820   -9.0740  -20.5220 F   0  0  0  0  0  0  0  0  0  0  0  0
   -1.0100   -5.4730  -22.6150 C   0  0  0  0  0  1  0  0  0  0  0  0
   -1.7470   -6.6230  -22.2010 O   0  0  0  0  0  0  0  0  0  0  0  0
    4.5220  -10.8130  -27.2000 C   0  0  0  0  0  2  0  0  0  0  0  0
    4.7010   -9.3800  -27.3560 N   0  0  0  0  0  0  0  0  0  0  0  0
    5.5740   -8.9630  -27.0790 H   0  0  0  0  0  0  0  0  0  0  0  0
    3.7940   -8.6760  -28.1350 C   0  0  0  0  0  0  0  0  0  0  0  0
    4.0670   -8.5950  -29.4490 N   0  0  0  0  0  0  0  0  0  0  0  0
    3.4380   -7.6450  -30.1390 C   0  0  0  0  0  3  0  0  0  0  0  0
    2.6380   -6.7140  -29.6170 N   0  0  0  0  0  0  0  0  0  0  0  0
    2.3290   -6.8200  -28.3090 C   0  0  0  0  0  0  0  0  0  0  0  0
    1.5450   -5.8590  -27.6620 C   0  0  0  0  0  0  0  0  0  0  0  0
    1.1250   -5.9820  -26.3300 C   0  0  0  0  0  3  0  0  0  0  0  0
    1.5450   -7.0690  -25.5820 C   0  0  0  0  0  3  0  0  0  0  0  0
    2.4180   -7.9850  -26.1610 C   0  0  0  0  0  3  0  0  0  0  0  0
    2.8250   -7.8640  -27.5170 C   0  0  0  0  0  0  0  0  0  0  0  0
    1.2540   -4.5750  -28.3220 C   0  0  0  0  0  0  0  0  0  0  0  0
    0.4200   -4.6570  -29.4040 N   0  0  0  0  0  0  0  0  0  0  0  0
    1.8150   -3.5370  -27.9960 O   0  0  0  0  0  0  0  0  0  0  0  0
    0.2170   -3.8130  -29.9200 H   0  0  0  0  0  0  0  0  0  0  0  0
   -0.0190   -5.5230  -29.6900 H   0  0  0  0  0  0  0  0  0  0  0  0
  1  2  1  0  0  0  0
  2  3  2  0  0  0  0
  4  3  1  0  0  0  0
  5  4  2  0  0  0  0
  6  5  1  0  0  0  0
  6  1  2  0  0  0  0
  7 14  1  0  0  0  0
  8  7  2  0  0  0  0
  9  1  1  0  0  0  0
  9  7  1  0  0  0  0
 10  9  1  0  0  0  0
 11 16  1  0  0  0  0
 11 22  1  0  0  0  0
 12 11  2  0  0  0  0
 13 14  2  0  0  0  0
 13 12  1  0  0  0  0
 14 15  1  0  0  0  0
 15 16  2  0  0  0  0
 16 17  1  0  0  0  0
 17 18  1  0  0  0  0
 17 20  1  0  0  0  0
 17 19  1  0  0  0  0
 21 22  1  0  0  0  0
 23  5  1  0  0  0  0
 24 23  1  0  0  0  0
 24 25  1  0  0  0  0
 26 35  1  0  0  0  0
 26 24  1  0  0  0  0
 27 26  2  0  0  0  0
 28 29  2  0  0  0  0
 28 27  1  0  0  0  0
 29 30  1  0  0  0  0
 30 31  2  0  0  0  0
 30 35  1  0  0  0  0
 31 32  1  0  0  0  0
 32 33  2  0  0  0  0
 34 33  1  0  0  0  0
 35 34  2  0  0  0  0
 36 38  2  0  0  0  0
 36 31  1  0  0  0  0
 37 36  1  0  0  0  0
 39 37  1  0  0  0  0
 40 37  1  0  0  0  0
M  END
>  <minimizedAffinity>
-8.17243862

$$$$
