
 OpenBabel10152418323D

 40 43  0  0  0  0  0  0  0  0999 V2000
    0.8450  -11.0280  -26.2270 C   0  0  0  0  0  0  0  0  0  0  0  0
    1.4340  -12.0190  -25.4410 C   0  0  0  0  0  3  0  0  0  0  0  0
    2.8120  -12.0160  -25.2560 C   0  0  0  0  0  3  0  0  0  0  0  0
    3.5900  -11.0080  -25.8250 C   0  0  0  0  0  3  0  0  0  0  0  0
    3.0100   -9.9300  -26.5100 C   0  0  0  0  0  0  0  0  0  0  0  0
    1.6180   -9.9480  -26.6800 C   0  0  0  0  0  3  0  0  0  0  0  0
   -1.6460  -11.0370  -25.8360 C   0  0  0  0  0  0  0  0  0  0  0  0
   -2.7360  -11.4240  -26.2500 O   0  0  0  0  0  0  0  0  0  0  0  0
   -0.5010  -11.2140  -26.5900 N   0  0  0  0  0  0  0  0  0  0  0  0
   -0.7010  -11.4250  -27.5620 H   0  0  0  0  0  0  0  0  0  0  0  0
   -1.8260   -8.9390  -22.1240 C   0  0  0  0  0  0  0  0  0  0  0  0
   -1.9070   -8.2460  -23.3400 C   0  0  0  0  0  3  0  0  0  0  0  0
   -1.7850   -8.9220  -24.5530 C   0  0  0  0  0  3  0  0  0  0  0  0
   -1.5850  -10.3010  -24.5480 C   0  0  0  0  0  0  0  0  0  0  0  0
   -1.4150  -10.9810  -23.3320 C   0  0  0  0  0  3  0  0  0  0  0  0
   -1.5990  -10.3210  -22.1030 C   0  0  0  0  0  0  0  0  0  0  0  0
   -1.6190  -11.1290  -20.8320 C   0  0  0  0  0  0  0  0  0  0  0  0
   -1.5440  -10.3670  -19.7060 F   0  0  0  0  0  0  0  0  0  0  0  0
   -2.7560  -11.8720  -20.6870 F   0  0  0  0  0  0  0  0  0  0  0  0
   -0.5940  -12.0210  -20.7600 F   0  0  0  0  0  0  0  0  0  0  0  0
   -1.9020   -6.8000  -21.1740 C   0  0  0  0  0  1  0  0  0  0  0  0
   -2.1190   -8.2000  -21.0100 O   0  0  0  0  0  0  0  0  0  0  0  0
    3.8490   -8.8320  -27.1530 C   0  0  0  0  0  2  0  0  0  0  0  0
    3.4710   -7.5050  -26.7010 N   0  0  0  0  0  0  0  0  0  0  0  0
    4.1180   -6.9770  -26.1390 H   0  0  0  0  0  0  0  0  0  0  0  0
    2.3690   -6.8910  -27.2790 C   0  0  0  0  0  0  0  0  0  0  0  0
    2.4730   -6.5730  -28.5810 N   0  0  0  0  0  0  0  0  0  0  0  0
    1.6070   -5.6800  -29.0550 C   0  0  0  0  0  3  0  0  0  0  0  0
    0.7140   -5.0080  -28.3260 N   0  0  0  0  0  0  0  0  0  0  0  0
    0.5790   -5.3560  -27.0310 C   0  0  0  0  0  0  0  0  0  0  0  0
   -0.2890   -4.6700  -26.1760 C   0  0  0  0  0  0  0  0  0  0  0  0
   -0.5280   -5.0600  -24.8510 C   0  0  0  0  0  3  0  0  0  0  0  0
    0.1650   -6.1360  -24.3240 C   0  0  0  0  0  3  0  0  0  0  0  0
    1.1200   -6.7710  -25.1120 C   0  0  0  0  0  3  0  0  0  0  0  0
    1.3430   -6.3830  -26.4600 C   0  0  0  0  0  0  0  0  0  0  0  0
   -0.8830   -3.3890  -26.5970 C   0  0  0  0  0  0  0  0  0  0  0  0
   -0.0090   -2.5070  -27.1720 N   0  0  0  0  0  0  0  0  0  0  0  0
   -2.0430   -3.0970  -26.3380 O   0  0  0  0  0  0  0  0  0  0  0  0
   -0.3530   -1.5970  -27.4440 H   0  0  0  0  0  0  0  0  0  0  0  0
    0.9570   -2.7400  -27.3570 H   0  0  0  0  0  0  0  0  0  0  0  0
  1  2  1  0  0  0  0
  2  3  2  0  0  0  0
  4  3  1  0  0  0  0
  5  4  2  0  0  0  0
  6  5  1  0  0  0  0
  6  1  2  0  0  0  0
  7 14  1  0  0  0  0
  8  7  2  0  0  0  0
  9  1  1  0  0  0  0
  9  7  1  0  0  0  0
 10  9  1  0  0  0  0
 11 16  1  0  0  0  0
 11 22  1  0  0  0  0
 12 11  2  0  0  0  0
 13 14  2  0  0  0  0
 13 12  1  0  0  0  0
 14 15  1  0  0  0  0
 15 16  2  0  0  0  0
 16 17  1  0  0  0  0
 17 20  1  0  0  0  0
 17 19  1  0  0  0  0
 17 18  1  0  0  0  0
 21 22  1  0  0  0  0
 23 24  1  0  0  0  0
 23  5  1  0  0  0  0
 24 25  1  0  0  0  0
 26 24  1  0  0  0  0
 26 35  1  0  0  0  0
 27 26  2  0  0  0  0
 28 27  1  0  0  0  0
 28 29  2  0  0  0  0
 29 30  1  0  0  0  0
 30 35  2  0  0  0  0
 30 31  1  0  0  0  0
 31 32  2  0  0  0  0
 32 33  1  0  0  0  0
 34 33  2  0  0  0  0
 35 34  1  0  0  0  0
 36 38  2  0  0  0  0
 36 31  1  0  0  0  0
 37 36  1  0  0  0  0
 39 37  1  0  0  0  0
 40 37  1  0  0  0  0
M  END
>  <minimizedAffinity>
-7.0761857

$$$$
