REMARK  Name = 
REMARK  9 active torsions:
REMARK  status: ('A' for Active; 'I' for Inactive)
REMARK    1  A    between atoms: C_1  and  O_2
REMARK    2  A    between atoms: O_2  and  C_3
REMARK    3  A    between atoms: C_6  and  C_7
REMARK    4  A    between atoms: N_9  and  C_10
REMARK    5  A    between atoms: C_14  and  C_15
REMARK    6  A    between atoms: C_15  and  N_16
REMARK    7  A    between atoms: N_16  and  C_17
REMARK    8  A    between atoms: C_22  and  C_23
REMARK    9  A    between atoms: C_32  and  C_33
REMARK                            x       y       z     vdW  Elec       q    Type
REMARK                         _______ _______ _______ _____ _____    ______ ____
ROOT
ATOM      1  C   UNL     1       4.330  -3.787   3.924  0.00  0.00    +0.034 A 
ATOM      2  C   UNL     1       5.449  -4.470   3.448  0.00  0.00    +0.023 A 
ATOM      3  C   UNL     1       6.425  -3.777   2.741  0.00  0.00    +0.002 A 
ATOM      4  C   UNL     1       6.297  -2.402   2.542  0.00  0.00    +0.005 A 
ATOM      5  C   UNL     1       5.249  -1.670   3.120  0.00  0.00    -0.029 A 
ATOM      6  C   UNL     1       4.279  -2.387   3.835  0.00  0.00    +0.028 A 
ENDROOT
BRANCH   1   9
ATOM      7  C   UNL     1       1.902  -4.320   4.345  0.00  0.00    +0.248 C 
ATOM      8  O   UNL     1       1.111  -5.011   4.981  0.00  0.00    -0.270 OA
ATOM      9  N   UNL     1       3.261  -4.564   4.406  0.00  0.00    -0.281 N 
ATOM     10  H   UNL     1       3.478  -5.481   4.781  0.00  0.00    +0.155 HD
BRANCH   7  14
ATOM     11  C   UNL     1       0.619  -1.073   1.890  0.00  0.00    +0.132 A 
ATOM     12  C   UNL     1       0.070  -1.263   3.166  0.00  0.00    +0.047 A 
ATOM     13  C   UNL     1       0.442  -2.359   3.943  0.00  0.00    +0.016 A 
ATOM     14  C   UNL     1       1.372  -3.267   3.442  0.00  0.00    +0.038 A 
ATOM     15  C   UNL     1       1.854  -3.126   2.131  0.00  0.00    +0.029 A 
ATOM     16  C   UNL     1       1.535  -1.992   1.362  0.00  0.00    +0.097 A 
BRANCH  16  17
ATOM     17  C   UNL     1       2.240  -1.774   0.049  0.00  0.00    +0.421 C 
ATOM     18  F   UNL     1       2.741  -0.516  -0.094  0.00  0.00    -0.166 F 
ATOM     19  F   UNL     1       3.307  -2.607  -0.132  0.00  0.00    -0.166 F 
ATOM     20  F   UNL     1       1.430  -1.988  -1.024  0.00  0.00    -0.166 F 
ENDBRANCH  16  17
BRANCH  11  22
ATOM     21  C   UNL     1      -0.410  -0.032   0.062  0.00  0.00    +0.277 C 
ATOM     22  O   UNL     1       0.303   0.115   1.289  0.00  0.00    -0.495 OA
ENDBRANCH  11  22
ENDBRANCH   7  14
ENDBRANCH   1   9
BRANCH   5  23
ATOM     23  C   UNL     1       5.087  -0.171   2.895  0.00  0.00    +0.138 C 
BRANCH  23  24
ATOM     24  N   UNL     1       6.219   0.592   3.390  0.00  0.00    -0.324 N 
ATOM     25  H   UNL     1       6.206   0.926   4.339  0.00  0.00    +0.148 HD
BRANCH  24  26
ATOM     26  C   UNL     1       7.394   0.598   2.652  0.00  0.00    +0.130 A 
ATOM     27  N   UNL     1       7.263   0.661   1.315  0.00  0.00    -0.220 NA
ATOM     28  C   UNL     1       8.320   0.305   0.588  0.00  0.00    +0.223 A 
ATOM     29  N   UNL     1       9.457  -0.196   1.073  0.00  0.00    -0.235 NA
ATOM     30  C   UNL     1       9.607  -0.219   2.412  0.00  0.00    +0.088 A 
ATOM     31  C   UNL     1      10.739  -0.779   3.013  0.00  0.00    +0.063 A 
ATOM     32  C   UNL     1      10.975  -0.737   4.394  0.00  0.00    +0.015 A 
ATOM     33  C   UNL     1      10.025  -0.174   5.229  0.00  0.00    +0.002 A 
ATOM     34  C   UNL     1       8.835   0.290   4.676  0.00  0.00    +0.013 A 
ATOM     35  C   UNL     1       8.611   0.262   3.273  0.00  0.00    +0.041 A 
BRANCH  31  36
ATOM     36  C   UNL     1      11.675  -1.590   2.215  0.00  0.00    +0.244 C 
ATOM     37  N   UNL     1      11.168  -2.776   1.758  0.00  0.00    -0.325 N 
ATOM     38  O   UNL     1      12.850  -1.276   2.079  0.00  0.00    -0.270 OA
ATOM     39  H   UNL     1      11.778  -3.391   1.238  0.00  0.00    +0.145 HD
ATOM     40  H   UNL     1      10.204  -3.047   1.898  0.00  0.00    +0.145 HD
ENDBRANCH  31  36
ENDBRANCH  24  26
ENDBRANCH  23  24
ENDBRANCH   5  23
TORSDOF 8
