
 OpenBabel10152418433D

 34 37  0  0  0  0  0  0  0  0999 V2000
    4.4290   -8.6420  -28.9590 C   0  0  0  0  0  0  0  0  0  0  0  0
    4.5300   -7.3810  -28.3500 C   0  0  0  0  0  3  0  0  0  0  0  0
    4.1280   -7.2240  -27.0340 C   0  0  0  0  0  3  0  0  0  0  0  0
    3.6390   -8.3270  -26.3390 C   0  0  0  0  0  3  0  0  0  0  0  0
    3.5470   -9.6080  -26.9480 C   0  0  0  0  0  0  0  0  0  0  0  0
    3.0610  -10.7590  -26.2980 C   0  0  0  0  0  0  0  0  0  0  0  0
    2.6570  -10.7060  -24.9690 N   0  0  0  0  0  0  0  0  0  0  0  0
    2.9410  -11.9350  -26.9360 N   0  0  0  0  0  0  0  0  0  0  0  0
    3.3560  -11.9830  -28.2020 C   0  0  0  0  0  3  0  0  0  0  0  0
    3.8710  -10.9680  -28.8950 N   0  0  0  0  0  0  0  0  0  0  0  0
    3.9420   -9.7710  -28.2880 C   0  0  0  0  0  0  0  0  0  0  0  0
    3.2250  -10.1760  -24.3240 H   0  0  0  0  0  0  0  0  0  0  0  0
    4.9740   -7.5530  -31.0350 N   0  0  0  0  0  0  0  0  0  0  0  0
    4.8320   -8.7430  -30.3750 C   0  0  0  0  0  0  0  0  0  0  0  0
    4.9740   -9.8170  -30.9420 O   0  0  0  0  0  0  0  0  0  0  0  0
    5.2500   -7.5910  -32.0080 H   0  0  0  0  0  0  0  0  0  0  0  0
    4.8880   -6.6530  -30.5850 H   0  0  0  0  0  0  0  0  0  0  0  0
    1.8230  -11.7590  -24.4250 C   0  0  0  0  0  2  0  0  0  0  0  0
    0.5700  -11.1890  -23.7960 C   0  0  0  0  0  0  0  0  0  0  0  0
   -0.4110  -12.0370  -23.2720 C   0  0  0  0  0  3  0  0  0  0  0  0
   -1.4690  -11.5060  -22.5370 C   0  0  0  0  0  3  0  0  0  0  0  0
   -1.5630  -10.1250  -22.3330 C   0  0  0  0  0  3  0  0  0  0  0  0
   -0.6520   -9.2550  -22.9200 C   0  0  0  0  0  0  0  0  0  0  0  0
    0.4310   -9.8000  -23.6260 C   0  0  0  0  0  3  0  0  0  0  0  0
   -0.6410   -7.8680  -22.7020 N   0  0  0  0  0  0  0  0  0  0  0  0
   -0.9010   -6.7930  -23.4930 C   0  0  0  0  0  0  0  0  0  0  0  0
   -1.4970   -5.8500  -22.9500 O   0  0  0  0  0  0  0  0  0  0  0  0
   -0.6890   -7.6060  -21.7230 H   0  0  0  0  0  0  0  0  0  0  0  0
   -0.2370   -6.5330  -24.8540 C   0  0  0  0  0  3  0  0  0  0  0  0
   -0.6920   -7.6510  -25.8150 C   0  0  0  0  0  2  0  0  0  0  0  0
    0.0890   -7.6290  -27.1260 C   0  0  0  0  0  2  0  0  0  0  0  0
   -0.0050   -6.2720  -27.8100 C   0  0  0  0  0  2  0  0  0  0  0  0
    0.4230   -5.1500  -26.8740 C   0  0  0  0  0  2  0  0  0  0  0  0
   -0.3440   -5.1800  -25.5490 C   0  0  0  0  0  2  0  0  0  0  0  0
  1  2  2  0  0  0  0
  1 11  1  0  0  0  0
  2  3  1  0  0  0  0
  3  4  2  0  0  0  0
  5  4  1  0  0  0  0
  5  6  1  0  0  0  0
  6  7  1  0  0  0  0
  7 18  1  0  0  0  0
  7 12  1  0  0  0  0
  8  6  2  0  0  0  0
  9  8  1  0  0  0  0
 10 11  1  0  0  0  0
 10  9  2  0  0  0  0
 11  5  2  0  0  0  0
 13 17  1  0  0  0  0
 13 14  1  0  0  0  0
 14  1  1  0  0  0  0
 15 14  2  0  0  0  0
 16 13  1  0  0  0  0
 18 19  1  0  0  0  0
 19 24  2  0  0  0  0
 19 20  1  0  0  0  0
 20 21  2  0  0  0  0
 21 22  1  0  0  0  0
 23 25  1  0  0  0  0
 23 22  2  0  0  0  0
 24 23  1  0  0  0  0
 25 28  1  0  0  0  0
 26 27  2  0  0  0  0
 26 25  1  0  0  0  0
 29 26  1  0  0  0  0
 30 29  1  0  0  0  0
 31 30  1  0  0  0  0
 32 31  1  0  0  0  0
 32 33  1  0  0  0  0
 33 34  1  0  0  0  0
 34 29  1  0  0  0  0
M  END
>  <minimizedAffinity>
-9.23290157

$$$$
