
 OpenBabel10152418433D

 34 37  0  0  0  0  0  0  0  0999 V2000
   -0.5830  -10.0750  -24.3980 C   0  0  0  0  0  0  0  0  0  0  0  0
   -1.0890  -11.2790  -24.9120 C   0  0  0  0  0  3  0  0  0  0  0  0
   -0.3210  -12.0230  -25.7920 C   0  0  0  0  0  3  0  0  0  0  0  0
    0.9450  -11.5600  -26.1430 C   0  0  0  0  0  3  0  0  0  0  0  0
    1.4650  -10.3470  -25.6160 C   0  0  0  0  0  0  0  0  0  0  0  0
    2.7360   -9.8280  -25.9330 C   0  0  0  0  0  0  0  0  0  0  0  0
    3.5890  -10.5150  -26.7890 N   0  0  0  0  0  0  0  0  0  0  0  0
    3.1580   -8.6470  -25.4520 N   0  0  0  0  0  0  0  0  0  0  0  0
    2.3440   -8.0090  -24.6110 C   0  0  0  0  0  3  0  0  0  0  0  0
    1.1450   -8.4310  -24.2110 N   0  0  0  0  0  0  0  0  0  0  0  0
    0.6840   -9.5820  -24.7310 C   0  0  0  0  0  0  0  0  0  0  0  0
    3.6570  -11.5160  -26.6830 H   0  0  0  0  0  0  0  0  0  0  0  0
   -0.9540   -9.0500  -22.2520 N   0  0  0  0  0  0  0  0  0  0  0  0
   -1.4610   -9.3030  -23.4970 C   0  0  0  0  0  0  0  0  0  0  0  0
   -2.5910   -8.9590  -23.8160 O   0  0  0  0  0  0  0  0  0  0  0  0
   -1.5340   -8.5210  -21.6120 H   0  0  0  0  0  0  0  0  0  0  0  0
   -0.0160   -9.2990  -21.9710 H   0  0  0  0  0  0  0  0  0  0  0  0
    4.7040   -9.8240  -27.4030 C   0  0  0  0  0  2  0  0  0  0  0  0
    4.2770   -9.1280  -28.6770 C   0  0  0  0  0  0  0  0  0  0  0  0
    4.3740   -9.7790  -29.9110 C   0  0  0  0  0  3  0  0  0  0  0  0
    3.8130   -9.2020  -31.0480 C   0  0  0  0  0  3  0  0  0  0  0  0
    3.1640   -7.9650  -30.9660 C   0  0  0  0  0  3  0  0  0  0  0  0
    3.1340   -7.2570  -29.7710 C   0  0  0  0  0  0  0  0  0  0  0  0
    3.6680   -7.8610  -28.6230 C   0  0  0  0  0  3  0  0  0  0  0  0
    2.4430   -6.0470  -29.5950 N   0  0  0  0  0  0  0  0  0  0  0  0
    1.9540   -5.3970  -28.5050 C   0  0  0  0  0  0  0  0  0  0  0  0
    2.0590   -4.1610  -28.5170 O   0  0  0  0  0  0  0  0  0  0  0  0
    2.5260   -5.4090  -30.3800 H   0  0  0  0  0  0  0  0  0  0  0  0
    1.0150   -6.0260  -27.4640 C   0  0  0  0  0  3  0  0  0  0  0  0
    0.2730   -4.8770  -26.7520 C   0  0  0  0  0  2  0  0  0  0  0  0
   -0.5110   -5.3700  -25.5390 C   0  0  0  0  0  2  0  0  0  0  0  0
   -1.4860   -6.4770  -25.9150 C   0  0  0  0  0  2  0  0  0  0  0  0
   -0.7780   -7.6160  -26.6370 C   0  0  0  0  0  2  0  0  0  0  0  0
    0.0250   -7.1230  -27.8430 C   0  0  0  0  0  2  0  0  0  0  0  0
  1 14  1  0  0  0  0
  2  1  2  0  0  0  0
  3  2  1  0  0  0  0
  4  3  2  0  0  0  0
  4  5  1  0  0  0  0
  5 11  1  0  0  0  0
  6  5  2  0  0  0  0
  6  8  1  0  0  0  0
  7 12  1  0  0  0  0
  7  6  1  0  0  0  0
  8  9  2  0  0  0  0
  9 10  1  0  0  0  0
 11  1  1  0  0  0  0
 11 10  2  0  0  0  0
 13 17  1  0  0  0  0
 13 16  1  0  0  0  0
 14 13  1  0  0  0  0
 15 14  2  0  0  0  0
 18  7  1  0  0  0  0
 19 24  1  0  0  0  0
 19 18  1  0  0  0  0
 20 19  2  0  0  0  0
 21 22  2  0  0  0  0
 21 20  1  0  0  0  0
 22 23  1  0  0  0  0
 23 25  1  0  0  0  0
 23 24  2  0  0  0  0
 25 26  1  0  0  0  0
 26 29  1  0  0  0  0
 27 26  2  0  0  0  0
 28 25  1  0  0  0  0
 29 30  1  0  0  0  0
 30 31  1  0  0  0  0
 32 31  1  0  0  0  0
 33 32  1  0  0  0  0
 34 29  1  0  0  0  0
 34 33  1  0  0  0  0
M  END
>  <minimizedAffinity>
-8.09444046

$$$$
