REMARK  Name = 
REMARK  5 active torsions:
REMARK  status: ('A' for Active; 'I' for Inactive)
REMARK    1  A    between atoms: C_2  and  C_4
REMARK    2  A    between atoms: N_10  and  C_11
REMARK    3  A    between atoms: C_11  and  C_12
REMARK    4  A    between atoms: C_16  and  N_17
REMARK    5  A    between atoms: C_18  and  C_20
REMARK                            x       y       z     vdW  Elec       q    Type
REMARK                         _______ _______ _______ _____ _____    ______ ____
ROOT
ATOM      1  C   UNL     1       1.032  -1.496  -1.853  0.00  0.00    +0.063 A 
ATOM      2  C   UNL     1       2.112  -2.309  -1.475  0.00  0.00    +0.015 A 
ATOM      3  C   UNL     1       2.748  -3.087  -2.428  0.00  0.00    +0.002 A 
ATOM      4  C   UNL     1       2.304  -3.039  -3.747  0.00  0.00    +0.013 A 
ATOM      5  C   UNL     1       1.219  -2.208  -4.136  0.00  0.00    +0.041 A 
ATOM      6  C   UNL     1       0.725  -2.117  -5.452  0.00  0.00    +0.130 A 
ATOM      7  N   UNL     1       1.313  -2.842  -6.482  0.00  0.00    -0.324 N 
ATOM      8  N   UNL     1      -0.341  -1.359  -5.757  0.00  0.00    -0.220 NA
ATOM      9  C   UNL     1      -0.882  -0.647  -4.768  0.00  0.00    +0.223 A 
ATOM     10  N   UNL     1      -0.467  -0.626  -3.502  0.00  0.00    -0.235 NA
ATOM     11  C   UNL     1       0.561  -1.425  -3.170  0.00  0.00    +0.088 A 
ATOM     12  H   UNL     1       2.321  -2.890  -6.509  0.00  0.00    +0.148 HD
ENDROOT
BRANCH   1  14
ATOM     13  N   UNL     1       1.145   0.212  -0.161  0.00  0.00    -0.325 N 
ATOM     14  C   UNL     1       0.365  -0.720  -0.789  0.00  0.00    +0.244 C 
ATOM     15  O   UNL     1      -0.790  -0.932  -0.448  0.00  0.00    -0.270 OA
ATOM     16  H   UNL     1       0.714   0.760   0.573  0.00  0.00    +0.145 HD
ATOM     17  H   UNL     1       2.092   0.425  -0.439  0.00  0.00    +0.145 HD
ENDBRANCH   1  14
BRANCH   7  18
ATOM     18  C   UNL     1       0.595  -3.044  -7.724  0.00  0.00    +0.138 C 
BRANCH  18  19
ATOM     19  C   UNL     1       1.541  -3.037  -8.905  0.00  0.00    -0.029 A 
ATOM     20  C   UNL     1       1.628  -4.145  -9.754  0.00  0.00    +0.005 A 
ATOM     21  C   UNL     1       2.362  -4.061 -10.935  0.00  0.00    +0.002 A 
ATOM     22  C   UNL     1       3.027  -2.877 -11.270  0.00  0.00    +0.023 A 
ATOM     23  C   UNL     1       3.031  -1.793 -10.400  0.00  0.00    +0.034 A 
ATOM     24  C   UNL     1       2.259  -1.872  -9.232  0.00  0.00    +0.028 A 
BRANCH  23  25
ATOM     25  N   UNL     1       3.614  -0.551 -10.699  0.00  0.00    -0.285 N 
ATOM     26  C   UNL     1       4.492  -0.132 -11.649  0.00  0.00    +0.220 C 
ATOM     27  O   UNL     1       4.283   0.995 -12.123  0.00  0.00    -0.275 OA
ATOM     28  H   UNL     1       3.119   0.241 -10.301  0.00  0.00    +0.155 HD
BRANCH  26  29
ATOM     29  C   UNL     1       5.859  -0.781 -11.917  0.00  0.00    +0.075 C 
ATOM     30  C   UNL     1       6.872  -0.151 -10.939  0.00  0.00    +0.013 C 
ATOM     31  C   UNL     1       8.308  -0.548 -11.273  0.00  0.00    +0.001 C 
ATOM     32  C   UNL     1       8.476  -2.061 -11.308  0.00  0.00    +0.000 C 
ATOM     33  C   UNL     1       7.473  -2.707 -12.254  0.00  0.00    +0.001 C 
ATOM     34  C   UNL     1       6.033  -2.296 -11.936  0.00  0.00    +0.013 C 
ENDBRANCH  26  29
ENDBRANCH  23  25
ENDBRANCH  18  19
ENDBRANCH   7  18
TORSDOF 5
