
 OpenBabel10152419323D

 38 41  0  0  1  0  0  0  0  0999 V2000
    0.2110  -12.5380  -23.9230 C   0  0  0  0  0  0  0  0  0  0  0  0
    1.5310  -12.9590  -24.0810 C   0  0  0  0  0  3  0  0  0  0  0  0
    2.2920  -12.4980  -25.1530 C   0  0  0  0  0  3  0  0  0  0  0  0
    1.7750  -11.5310  -26.0150 C   0  0  0  0  0  3  0  0  0  0  0  0
    0.4780  -11.0260  -25.8280 C   0  0  0  0  0  0  0  0  0  0  0  0
   -0.3290  -11.5990  -24.8140 C   0  0  0  0  0  3  0  0  0  0  0  0
   -0.6420  -12.2540  -21.5800 C   0  0  0  0  0  0  0  0  0  0  0  0
   -0.4860  -12.8290  -20.5050 O   0  0  0  0  0  0  0  0  0  0  0  0
   -0.4560  -12.9420  -22.7530 N   0  0  0  0  0  0  0  0  0  0  0  0
   -0.6710  -13.9300  -22.6810 H   0  0  0  0  0  0  0  0  0  0  0  0
   -2.0650   -8.9310  -22.1970 C   0  0  0  0  0  0  0  0  0  0  0  0
   -1.0540   -9.8770  -22.5210 C   0  0  0  0  0  3  0  0  0  0  0  0
   -1.2320  -10.9410  -21.6570 C   0  0  0  0  0  0  0  0  0  0  0  0
   -2.2980  -10.5770  -20.8810 N   0  0  0  0  0  0  0  0  0  0  0  0
   -2.7980   -9.3650  -21.1640 N   0  0  0  0  0  0  0  0  0  0  0  0
   -2.7470  -11.1330  -20.1590 H   0  0  0  0  0  0  0  0  0  0  0  0
   -1.0610   -6.6970  -22.8810 C   0  0  0  0  0  1  0  0  0  0  0  0
   -2.3230   -7.5660  -22.8050 C   0  0  0  0  0  3  0  0  0  0  0  0
   -2.9800   -7.6210  -24.1860 C   0  0  0  0  0  1  0  0  0  0  0  0
    0.0100   -9.7690  -26.5710 C   0  0  1  0  0  3  0  0  0  0  0  0
   -1.4600   -9.8920  -26.9770 C   0  0  0  0  0  1  0  0  0  0  0  0
    0.1650   -8.5650  -25.7610 N   0  0  0  0  0  0  0  0  0  0  0  0
    0.0020   -8.6010  -24.7690 H   0  0  0  0  0  0  0  0  0  0  0  0
    0.8350   -7.4870  -26.3290 C   0  0  0  0  0  0  0  0  0  0  0  0
    0.0720   -6.5280  -26.8820 N   0  0  0  0  0  0  0  0  0  0  0  0
    0.6340   -5.7920  -27.8340 C   0  0  0  0  0  3  0  0  0  0  0  0
    1.8370   -6.0170  -28.3530 N   0  0  0  0  0  0  0  0  0  0  0  0
    2.6030   -6.9430  -27.7460 C   0  0  0  0  0  0  0  0  0  0  0  0
    3.7600   -7.4420  -28.3440 C   0  0  0  0  0  0  0  0  0  0  0  0
    4.7010   -8.2360  -27.6700 C   0  0  0  0  0  3  0  0  0  0  0  0
    4.4060   -8.6810  -26.3940 C   0  0  0  0  0  3  0  0  0  0  0  0
    3.1300   -8.4360  -25.8910 C   0  0  0  0  0  3  0  0  0  0  0  0
    2.2080   -7.6040  -26.5900 C   0  0  0  0  0  0  0  0  0  0  0  0
    3.5270   -7.8600  -29.7420 C   0  0  0  0  0  0  0  0  0  0  0  0
    4.4340   -8.8110  -30.1430 N   0  0  0  0  0  0  0  0  0  0  0  0
    2.6480   -7.4070  -30.4550 O   0  0  0  0  0  0  0  0  0  0  0  0
    4.2840   -9.2950  -31.0100 H   0  0  0  0  0  0  0  0  0  0  0  0
    5.1720   -9.1590  -29.5410 H   0  0  0  0  0  0  0  0  0  0  0  0
  1  9  1  0  0  0  0
  2  1  1  0  0  0  0
  3  2  2  0  0  0  0
  4  5  2  0  0  0  0
  4  3  1  0  0  0  0
  5  6  1  0  0  0  0
  6  1  2  0  0  0  0
  7  8  2  0  0  0  0
  9 10  1  0  0  0  0
  9  7  1  0  0  0  0
 11 15  2  0  0  0  0
 12 11  1  0  0  0  0
 12 13  2  0  0  0  0
 13  7  1  0  0  0  0
 13 14  1  0  0  0  0
 14 16  1  0  0  0  0
 15 14  1  0  0  0  0
 17 18  1  0  0  0  0
 18 11  1  0  0  0  0
 19 18  1  0  0  0  0
 20 21  1  1  0  0  0
 20  5  1  0  0  0  0
 20 22  1  0  0  0  0
 22 23  1  0  0  0  0
 24 22  1  0  0  0  0
 25 24  2  0  0  0  0
 26 25  1  0  0  0  0
 27 26  2  0  0  0  0
 27 28  1  0  0  0  0
 28 33  1  0  0  0  0
 29 28  2  0  0  0  0
 29 30  1  0  0  0  0
 30 31  2  0  0  0  0
 31 32  1  0  0  0  0
 33 24  1  0  0  0  0
 33 32  2  0  0  0  0
 34 29  1  0  0  0  0
 35 34  1  0  0  0  0
 35 38  1  0  0  0  0
 36 34  2  0  0  0  0
 37 35  1  0  0  0  0
M  END
>  <minimizedAffinity>
-7.38297558

$$$$
