
 OpenBabel10152419323D

 38 41  0  0  1  0  0  0  0  0999 V2000
    2.6790   -8.3750  -26.6400 C   0  0  0  0  0  0  0  0  0  0  0  0
    2.6820   -7.7000  -25.4200 C   0  0  0  0  0  3  0  0  0  0  0  0
    2.2760   -8.3500  -24.2560 C   0  0  0  0  0  3  0  0  0  0  0  0
    1.9660   -9.7090  -24.2860 C   0  0  0  0  0  3  0  0  0  0  0  0
    2.0370  -10.4350  -25.4860 C   0  0  0  0  0  0  0  0  0  0  0  0
    2.3250   -9.7310  -26.6820 C   0  0  0  0  0  3  0  0  0  0  0  0
    2.5720   -6.9850  -28.7270 C   0  0  0  0  0  0  0  0  0  0  0  0
    2.9030   -7.1260  -29.9020 O   0  0  0  0  0  0  0  0  0  0  0  0
    3.2190   -7.6990  -27.7490 N   0  0  0  0  0  0  0  0  0  0  0  0
    4.1850   -7.9080  -27.9720 H   0  0  0  0  0  0  0  0  0  0  0  0
    0.2900   -4.4990  -27.2920 C   0  0  0  0  0  0  0  0  0  0  0  0
    0.6680   -5.8680  -27.3750 C   0  0  0  0  0  3  0  0  0  0  0  0
    1.6810   -5.9300  -28.3120 C   0  0  0  0  0  0  0  0  0  0  0  0
    1.8380   -4.6390  -28.7340 N   0  0  0  0  0  0  0  0  0  0  0  0
    0.9980   -3.7650  -28.1600 N   0  0  0  0  0  0  0  0  0  0  0  0
    2.5280   -4.2910  -29.3940 H   0  0  0  0  0  0  0  0  0  0  0  0
   -0.7240   -4.2780  -24.9720 C   0  0  0  0  0  1  0  0  0  0  0  0
   -0.7930   -3.8590  -26.4450 C   0  0  0  0  0  3  0  0  0  0  0  0
   -0.8220   -2.3320  -26.5320 C   0  0  0  0  0  1  0  0  0  0  0  0
    1.9910  -11.9670  -25.4820 C   0  0  1  0  0  3  0  0  0  0  0  0
    3.2840  -12.5490  -24.9050 C   0  0  0  0  0  1  0  0  0  0  0  0
    0.8690  -12.4780  -24.7030 N   0  0  0  0  0  0  0  0  0  0  0  0
    1.0340  -13.0860  -23.9190 H   0  0  0  0  0  0  0  0  0  0  0  0
   -0.3670  -11.8630  -24.8720 C   0  0  0  0  0  0  0  0  0  0  0  0
   -0.7460  -11.6100  -26.1370 N   0  0  0  0  0  0  0  0  0  0  0  0
   -1.6130  -10.6200  -26.3140 C   0  0  0  0  0  3  0  0  0  0  0  0
   -2.0280   -9.7970  -25.3560 N   0  0  0  0  0  0  0  0  0  0  0  0
   -1.6820  -10.1040  -24.0920 C   0  0  0  0  0  0  0  0  0  0  0  0
   -1.8360   -9.1910  -23.0490 C   0  0  0  0  0  0  0  0  0  0  0  0
   -1.6980   -9.5310  -21.6940 C   0  0  0  0  0  3  0  0  0  0  0  0
   -1.2360  -10.7940  -21.3680 C   0  0  0  0  0  3  0  0  0  0  0  0
   -0.7980  -11.6210  -22.3990 C   0  0  0  0  0  3  0  0  0  0  0  0
   -0.9780  -11.2560  -23.7650 C   0  0  0  0  0  0  0  0  0  0  0  0
   -1.2800   -7.8630  -23.3850 C   0  0  0  0  0  0  0  0  0  0  0  0
   -1.2750   -7.0270  -22.2940 N   0  0  0  0  0  0  0  0  0  0  0  0
   -0.8880   -7.5460  -24.4950 O   0  0  0  0  0  0  0  0  0  0  0  0
   -0.7740   -6.1580  -22.3480 H   0  0  0  0  0  0  0  0  0  0  0  0
   -1.6260   -7.3030  -21.3840 H   0  0  0  0  0  0  0  0  0  0  0  0
  1  2  1  0  0  0  0
  2  3  2  0  0  0  0
  4  3  1  0  0  0  0
  5 20  1  0  0  0  0
  5  4  2  0  0  0  0
  6  1  2  0  0  0  0
  6  5  1  0  0  0  0
  7 13  1  0  0  0  0
  7  9  1  0  0  0  0
  8  7  2  0  0  0  0
  9  1  1  0  0  0  0
 10  9  1  0  0  0  0
 11 18  1  0  0  0  0
 12 11  1  0  0  0  0
 13 12  2  0  0  0  0
 14 13  1  0  0  0  0
 14 15  1  0  0  0  0
 15 11  2  0  0  0  0
 16 14  1  0  0  0  0
 18 17  1  0  0  0  0
 19 18  1  0  0  0  0
 20 21  1  1  0  0  0
 20 22  1  0  0  0  0
 22 23  1  0  0  0  0
 24 22  1  0  0  0  0
 24 33  1  0  0  0  0
 25 24  2  0  0  0  0
 26 25  1  0  0  0  0
 26 27  2  0  0  0  0
 27 28  1  0  0  0  0
 28 33  2  0  0  0  0
 28 29  1  0  0  0  0
 29 30  2  0  0  0  0
 30 31  1  0  0  0  0
 32 31  2  0  0  0  0
 33 32  1  0  0  0  0
 34 29  1  0  0  0  0
 34 35  1  0  0  0  0
 35 38  1  0  0  0  0
 36 34  2  0  0  0  0
 37 35  1  0  0  0  0
M  END
>  <minimizedAffinity>
-7.61390972

$$$$
