
 OpenBabel10152419323D

 38 41  0  0  1  0  0  0  0  0999 V2000
   -0.5060   -6.6420  -24.8420 C   0  0  0  0  0  0  0  0  0  0  0  0
   -1.2890   -7.7790  -25.0430 C   0  0  0  0  0  3  0  0  0  0  0  0
   -1.2840   -8.4260  -26.2770 C   0  0  0  0  0  3  0  0  0  0  0  0
   -0.4160   -8.0060  -27.2840 C   0  0  0  0  0  3  0  0  0  0  0  0
    0.4460   -6.9160  -27.0790 C   0  0  0  0  0  0  0  0  0  0  0  0
    0.3360   -6.1890  -25.8680 C   0  0  0  0  0  3  0  0  0  0  0  0
   -1.3740   -6.2490  -22.5200 C   0  0  0  0  0  0  0  0  0  0  0  0
   -1.6760   -5.2680  -21.8430 O   0  0  0  0  0  0  0  0  0  0  0  0
   -0.4630   -6.1160  -23.5390 N   0  0  0  0  0  0  0  0  0  0  0  0
    0.2280   -5.3930  -23.3720 H   0  0  0  0  0  0  0  0  0  0  0  0
   -1.9700   -9.7460  -21.5900 C   0  0  0  0  0  0  0  0  0  0  0  0
   -1.2380   -8.8310  -22.3980 C   0  0  0  0  0  3  0  0  0  0  0  0
   -1.7700   -7.5820  -22.1430 C   0  0  0  0  0  0  0  0  0  0  0  0
   -2.7680   -7.8130  -21.2370 N   0  0  0  0  0  0  0  0  0  0  0  0
   -2.9280   -9.1050  -20.9100 N   0  0  0  0  0  0  0  0  0  0  0  0
   -3.3550   -7.1190  -20.7820 H   0  0  0  0  0  0  0  0  0  0  0  0
   -0.8340  -11.8280  -22.5060 C   0  0  0  0  0  1  0  0  0  0  0  0
   -1.8300  -11.2520  -21.4910 C   0  0  0  0  0  3  0  0  0  0  0  0
   -1.4640  -11.7470  -20.0910 C   0  0  0  0  0  1  0  0  0  0  0  0
    1.5980   -6.6320  -28.0500 C   0  0  1  0  0  3  0  0  0  0  0  0
    1.4660   -5.2330  -28.6570 C   0  0  0  0  0  1  0  0  0  0  0  0
    2.8990   -6.7310  -27.3990 N   0  0  0  0  0  0  0  0  0  0  0  0
    3.2360   -5.9740  -26.8290 H   0  0  0  0  0  0  0  0  0  0  0  0
    3.4920   -7.9870  -27.3290 C   0  0  0  0  0  0  0  0  0  0  0  0
    4.1500   -8.4040  -28.4250 N   0  0  0  0  0  0  0  0  0  0  0  0
    4.2730   -9.7170  -28.5840 C   0  0  0  0  0  3  0  0  0  0  0  0
    3.6930  -10.6310  -27.8120 N   0  0  0  0  0  0  0  0  0  0  0  0
    3.0890  -10.1920  -26.6910 C   0  0  0  0  0  0  0  0  0  0  0  0
    2.2380  -11.0110  -25.9500 C   0  0  0  0  0  0  0  0  0  0  0  0
    1.7620  -10.6800  -24.6710 C   0  0  0  0  0  3  0  0  0  0  0  0
    2.0170   -9.4150  -24.1720 C   0  0  0  0  0  3  0  0  0  0  0  0
    2.6140   -8.4830  -25.0170 C   0  0  0  0  0  3  0  0  0  0  0  0
    3.1100   -8.8600  -26.3000 C   0  0  0  0  0  0  0  0  0  0  0  0
    1.2320  -11.6820  -26.8000 C   0  0  0  0  0  0  0  0  0  0  0  0
    1.7800  -12.7320  -27.4970 N   0  0  0  0  0  0  0  0  0  0  0  0
    0.0660  -11.3380  -26.8820 O   0  0  0  0  0  0  0  0  0  0  0  0
    1.1710  -13.3680  -27.9810 H   0  0  0  0  0  0  0  0  0  0  0  0
    2.7580  -12.9890  -27.4310 H   0  0  0  0  0  0  0  0  0  0  0  0
  1  9  1  0  0  0  0
  2  1  1  0  0  0  0
  3  2  2  0  0  0  0
  4  5  2  0  0  0  0
  4  3  1  0  0  0  0
  5  6  1  0  0  0  0
  6  1  2  0  0  0  0
  7 13  1  0  0  0  0
  7  8  2  0  0  0  0
  9 10  1  0  0  0  0
  9  7  1  0  0  0  0
 11 18  1  0  0  0  0
 11 15  2  0  0  0  0
 12 13  2  0  0  0  0
 12 11  1  0  0  0  0
 13 14  1  0  0  0  0
 14 15  1  0  0  0  0
 14 16  1  0  0  0  0
 17 18  1  0  0  0  0
 18 19  1  0  0  0  0
 20 21  1  1  0  0  0
 20 22  1  0  0  0  0
 20  5  1  0  0  0  0
 22 24  1  0  0  0  0
 22 23  1  0  0  0  0
 24 33  1  0  0  0  0
 25 24  2  0  0  0  0
 26 25  1  0  0  0  0
 26 27  2  0  0  0  0
 27 28  1  0  0  0  0
 28 33  2  0  0  0  0
 28 29  1  0  0  0  0
 29 30  2  0  0  0  0
 30 31  1  0  0  0  0
 32 31  2  0  0  0  0
 33 32  1  0  0  0  0
 34 29  1  0  0  0  0
 35 38  1  0  0  0  0
 35 34  1  0  0  0  0
 36 34  2  0  0  0  0
 37 35  1  0  0  0  0
M  END
>  <minimizedAffinity>
-8.49020767

$$$$
