
 OpenBabel10152419323D

 38 41  0  0  1  0  0  0  0  0999 V2000
    4.3190   -9.8930  -27.3700 C   0  0  0  0  0  0  0  0  0  0  0  0
    4.0960  -10.5540  -28.5780 C   0  0  0  0  0  3  0  0  0  0  0  0
    3.6870  -11.8860  -28.5850 C   0  0  0  0  0  3  0  0  0  0  0  0
    3.3940  -12.5350  -27.3860 C   0  0  0  0  0  3  0  0  0  0  0  0
    3.5270  -11.8660  -26.1580 C   0  0  0  0  0  0  0  0  0  0  0  0
    4.0690  -10.5570  -26.1590 C   0  0  0  0  0  3  0  0  0  0  0  0
    3.8120   -7.4860  -27.8660 C   0  0  0  0  0  0  0  0  0  0  0  0
    4.2890   -6.6110  -28.5860 O   0  0  0  0  0  0  0  0  0  0  0  0
    4.6080   -8.5180  -27.4340 N   0  0  0  0  0  0  0  0  0  0  0  0
    5.5820   -8.2620  -27.3280 H   0  0  0  0  0  0  0  0  0  0  0  0
    0.6920   -7.0560  -25.9880 C   0  0  0  0  0  0  0  0  0  0  0  0
    2.0310   -7.5370  -25.9890 C   0  0  0  0  0  3  0  0  0  0  0  0
    2.5060   -7.3490  -27.2720 C   0  0  0  0  0  0  0  0  0  0  0  0
    1.4550   -6.7960  -27.9490 N   0  0  0  0  0  0  0  0  0  0  0  0
    0.3460   -6.6350  -27.2110 N   0  0  0  0  0  0  0  0  0  0  0  0
    1.4480   -6.4780  -28.9140 H   0  0  0  0  0  0  0  0  0  0  0  0
   -0.0870   -5.8920  -23.8660 C   0  0  0  0  0  1  0  0  0  0  0  0
   -0.3160   -7.0420  -24.8550 C   0  0  0  0  0  3  0  0  0  0  0  0
   -1.7710   -7.0200  -25.3240 C   0  0  0  0  0  1  0  0  0  0  0  0
    2.9340  -12.4570  -24.8730 C   0  0  1  0  0  3  0  0  0  0  0  0
    4.0420  -12.9480  -23.9390 C   0  0  0  0  0  1  0  0  0  0  0  0
    2.1190  -11.4870  -24.1510 N   0  0  0  0  0  0  0  0  0  0  0  0
    2.5500  -10.6840  -23.7240 H   0  0  0  0  0  0  0  0  0  0  0  0
    0.7420  -11.5320  -24.3410 C   0  0  0  0  0  0  0  0  0  0  0  0
    0.2700  -10.9570  -25.4610 N   0  0  0  0  0  0  0  0  0  0  0  0
   -0.9900  -10.5380  -25.4320 C   0  0  0  0  0  3  0  0  0  0  0  0
   -1.7630  -10.5380  -24.3500 N   0  0  0  0  0  0  0  0  0  0  0  0
   -1.2900  -11.1690  -23.2590 C   0  0  0  0  0  0  0  0  0  0  0  0
   -1.8860  -11.0140  -22.0080 C   0  0  0  0  0  0  0  0  0  0  0  0
   -1.5720  -11.8100  -20.8950 C   0  0  0  0  0  3  0  0  0  0  0  0
   -0.5120  -12.6940  -20.9860 C   0  0  0  0  0  3  0  0  0  0  0  0
    0.2810  -12.6540  -22.1300 C   0  0  0  0  0  3  0  0  0  0  0  0
   -0.0820  -11.8540  -23.2530 C   0  0  0  0  0  0  0  0  0  0  0  0
   -2.1150   -9.5930  -21.6730 C   0  0  0  0  0  0  0  0  0  0  0  0
   -0.9680   -8.8490  -21.8180 N   0  0  0  0  0  0  0  0  0  0  0  0
   -3.1840   -9.1400  -21.3010 O   0  0  0  0  0  0  0  0  0  0  0  0
   -1.0280   -7.8470  -21.7810 H   0  0  0  0  0  0  0  0  0  0  0  0
   -0.0830   -9.2490  -22.1080 H   0  0  0  0  0  0  0  0  0  0  0  0
  1  6  1  0  0  0  0
  2  1  2  0  0  0  0
  3  2  1  0  0  0  0
  3  4  2  0  0  0  0
  4  5  1  0  0  0  0
  5 20  1  0  0  0  0
  6  5  2  0  0  0  0
  7  9  1  0  0  0  0
  7 13  1  0  0  0  0
  8  7  2  0  0  0  0
  9  1  1  0  0  0  0
  9 10  1  0  0  0  0
 11 18  1  0  0  0  0
 12 11  1  0  0  0  0
 13 12  2  0  0  0  0
 14 13  1  0  0  0  0
 14 15  1  0  0  0  0
 15 11  2  0  0  0  0
 16 14  1  0  0  0  0
 18 17  1  0  0  0  0
 19 18  1  0  0  0  0
 20 22  1  0  0  0  0
 20 21  1  1  0  0  0
 22 23  1  0  0  0  0
 24 22  1  0  0  0  0
 24 33  1  0  0  0  0
 25 26  1  0  0  0  0
 25 24  2  0  0  0  0
 26 27  2  0  0  0  0
 27 28  1  0  0  0  0
 28 33  2  0  0  0  0
 28 29  1  0  0  0  0
 29 34  1  0  0  0  0
 29 30  2  0  0  0  0
 31 30  1  0  0  0  0
 32 31  2  0  0  0  0
 33 32  1  0  0  0  0
 34 36  2  0  0  0  0
 35 37  1  0  0  0  0
 35 34  1  0  0  0  0
 38 35  1  0  0  0  0
M  END
>  <minimizedAffinity>
-8.77957439

$$$$
