REMARK  Name = 
REMARK  10 active torsions:
REMARK  status: ('A' for Active; 'I' for Inactive)
REMARK    1  A    between atoms: C_1  and  C_2
REMARK    2  A    between atoms: C_2  and  C_3
REMARK    3  A    between atoms: C_2  and  C_4
REMARK    4  A    between atoms: C_6  and  C_7
REMARK    5  A    between atoms: N_9  and  C_10
REMARK    6  A    between atoms: C_14  and  C_15
REMARK    7  A    between atoms: C_15  and  C_16
REMARK    8  A    between atoms: C_15  and  N_17
REMARK    9  A    between atoms: N_17  and  C_18
REMARK   10  A    between atoms: C_23  and  C_24
REMARK                            x       y       z     vdW  Elec       q    Type
REMARK                         _______ _______ _______ _____ _____    ______ ____
ROOT
ATOM      1  C   UNL     1      -2.067  -2.410   0.273  0.00  0.00    +0.034 A 
ATOM      2  C   UNL     1      -1.835  -3.596  -0.424  0.00  0.00    +0.023 A 
ATOM      3  C   UNL     1      -0.693  -4.351  -0.165  0.00  0.00    +0.002 A 
ATOM      4  C   UNL     1       0.171  -3.983   0.866  0.00  0.00    +0.005 A 
ATOM      5  C   UNL     1      -0.084  -2.840   1.641  0.00  0.00    -0.026 A 
ATOM      6  C   UNL     1      -1.176  -2.012   1.281  0.00  0.00    +0.028 A 
ENDROOT
BRANCH   1   9
ATOM      7  C   UNL     1      -3.612  -0.435   0.173  0.00  0.00    +0.266 C 
ATOM      8  O   UNL     1      -4.664  -0.106   0.717  0.00  0.00    -0.268 OA
ATOM      9  N   UNL     1      -3.297  -1.766   0.052  0.00  0.00    -0.280 N 
ATOM     10  H   UNL     1      -4.108  -2.368  -0.027  0.00  0.00    +0.155 HD
BRANCH   7  13
ATOM     11  C   UNL     1      -1.541   1.701  -1.971  0.00  0.00    +0.066 A 
ATOM     12  C   UNL     1      -1.843   0.382  -1.531  0.00  0.00    +0.057 A 
ATOM     13  C   UNL     1      -2.800   0.516  -0.544  0.00  0.00    +0.121 A 
ATOM     14  N   UNL     1      -3.001   1.865  -0.442  0.00  0.00    -0.272 N 
ATOM     15  N   UNL     1      -2.239   2.600  -1.266  0.00  0.00    -0.178 NA
ATOM     16  H   UNL     1      -3.672   2.340   0.155  0.00  0.00    +0.189 HD
BRANCH  11  18
ATOM     17  C   UNL     1      -0.180   1.043  -4.015  0.00  0.00    +0.014 C 
ATOM     18  C   UNL     1      -0.540   2.151  -3.017  0.00  0.00    +0.033 C 
ATOM     19  C   UNL     1      -0.972   3.400  -3.787  0.00  0.00    +0.014 C 
ENDBRANCH  11  18
ENDBRANCH   7  13
ENDBRANCH   1   9
BRANCH   5  20
ATOM     20  C   UNL     1       0.678  -2.591   2.948  0.00  0.00    +0.099 C 
ATOM     21  C   UNL     1       0.370  -3.684   3.974  0.00  0.00    +0.033 C 
BRANCH  20  22
ATOM     22  N   UNL     1       2.121  -2.548   2.740  0.00  0.00    -0.322 N 
ATOM     23  H   UNL     1       2.605  -3.359   2.394  0.00  0.00    +0.148 HD
BRANCH  22  24
ATOM     24  C   UNL     1       2.734  -1.300   2.725  0.00  0.00    +0.130 A 
ATOM     25  N   UNL     1       2.244  -0.379   3.573  0.00  0.00    -0.220 NA
ATOM     26  C   UNL     1       2.434   0.895   3.247  0.00  0.00    +0.223 A 
ATOM     27  N   UNL     1       2.957   1.312   2.098  0.00  0.00    -0.235 NA
ATOM     28  C   UNL     1       3.491   0.375   1.292  0.00  0.00    +0.088 A 
ATOM     29  C   UNL     1       3.829   0.655  -0.032  0.00  0.00    +0.063 A 
ATOM     30  C   UNL     1       4.582  -0.212  -0.840  0.00  0.00    +0.015 A 
ATOM     31  C   UNL     1       4.880  -1.476  -0.364  0.00  0.00    +0.002 A 
ATOM     32  C   UNL     1       4.302  -1.880   0.837  0.00  0.00    +0.013 A 
ATOM     33  C   UNL     1       3.565  -0.966   1.646  0.00  0.00    +0.041 A 
BRANCH  29  34
ATOM     34  C   UNL     1       2.733   1.334  -0.754  0.00  0.00    +0.244 C 
ATOM     35  N   UNL     1       1.698   0.472  -1.028  0.00  0.00    -0.325 N 
ATOM     36  O   UNL     1       2.751   2.509  -1.078  0.00  0.00    -0.270 OA
ATOM     37  H   UNL     1       0.829   0.844  -1.366  0.00  0.00    +0.145 HD
ATOM     38  H   UNL     1       1.712  -0.508  -0.769  0.00  0.00    +0.145 HD
ENDBRANCH  29  34
ENDBRANCH  22  24
ENDBRANCH  20  22
ENDBRANCH   5  20
TORSDOF 7
