
 OpenBabel10152418263D

 37 40  0  0  1  0  0  0  0  0999 V2000
    0.5940  -10.7050  -26.0990 C   0  0  2  0  0  3  0  0  0  0  0  0
    2.0040  -11.3010  -26.1520 C   0  0  0  0  0  1  0  0  0  0  0  0
    0.6470   -6.8900  -26.5120 C   0  0  0  0  0  0  0  0  0  0  0  0
    1.0420   -6.4790  -25.2390 C   0  0  0  0  0  3  0  0  0  0  0  0
    1.1600   -7.4080  -24.2060 C   0  0  0  0  0  3  0  0  0  0  0  0
    0.9670   -8.7670  -24.4620 C   0  0  0  0  0  3  0  0  0  0  0  0
    0.6480   -9.2120  -25.7550 C   0  0  0  0  0  0  0  0  0  0  0  0
    0.4270   -8.2490  -26.7630 C   0  0  0  0  0  3  0  0  0  0  0  0
    1.6950   -5.4180  -28.2470 C   0  0  0  0  0  0  0  0  0  0  0  0
    1.7280   -4.2370  -28.5800 O   0  0  0  0  0  0  0  0  0  0  0  0
    0.6340   -5.9230  -27.5330 N   0  0  0  0  0  0  0  0  0  0  0  0
   -0.2270   -5.4040  -27.6560 H   0  0  0  0  0  0  0  0  0  0  0  0
    4.2940   -8.3620  -29.7910 C   0  0  0  0  0  0  0  0  0  0  0  0
    4.5900   -7.8220  -28.5460 C   0  0  0  0  0  3  0  0  0  0  0  0
    3.7840   -6.7950  -28.0510 C   0  0  0  0  0  3  0  0  0  0  0  0
    2.6960   -6.3520  -28.8050 C   0  0  0  0  0  0  0  0  0  0  0  0
    2.4590   -6.9710  -30.0220 C   0  0  0  0  0  3  0  0  0  0  0  0
    3.2460   -7.9480  -30.5380 N   0  0  0  0  0  0  0  0  0  0  0  0
    4.3950   -9.9350  -31.5260 C   0  0  0  0  0  1  0  0  0  0  0  0
    4.9720   -9.4200  -30.3300 O   0  0  0  0  0  0  0  0  0  0  0  0
   -0.2080  -11.4480  -25.1320 N   0  0  0  0  0  0  0  0  0  0  0  0
    0.2030  -12.2270  -24.6450 H   0  0  0  0  0  0  0  0  0  0  0  0
   -1.2790  -10.7570  -24.5680 C   0  0  0  0  0  0  0  0  0  0  0  0
   -1.9050   -9.8760  -25.3680 N   0  0  0  0  0  0  0  0  0  0  0  0
   -2.6010   -8.9160  -24.7690 C   0  0  0  0  0  3  0  0  0  0  0  0
   -2.6440   -8.7070  -23.4530 N   0  0  0  0  0  0  0  0  0  0  0  0
   -2.0670   -9.6280  -22.6590 C   0  0  0  0  0  0  0  0  0  0  0  0
   -1.9750   -9.4480  -21.2780 C   0  0  0  0  0  0  0  0  0  0  0  0
   -1.4970  -10.4310  -20.3990 C   0  0  0  0  0  3  0  0  0  0  0  0
   -1.0330  -11.6300  -20.9140 C   0  0  0  0  0  3  0  0  0  0  0  0
   -0.9650  -11.7800  -22.2960 C   0  0  0  0  0  3  0  0  0  0  0  0
   -1.4510  -10.7700  -23.1740 C   0  0  0  0  0  0  0  0  0  0  0  0
   -2.1050   -8.0810  -20.7470 C   0  0  0  0  0  0  0  0  0  0  0  0
   -1.8230   -7.1100  -21.6750 N   0  0  0  0  0  0  0  0  0  0  0  0
   -2.3970   -7.8330  -19.5900 O   0  0  0  0  0  0  0  0  0  0  0  0
   -1.8700   -6.1420  -21.3960 H   0  0  0  0  0  0  0  0  0  0  0  0
   -1.6050   -7.3320  -22.6390 H   0  0  0  0  0  0  0  0  0  0  0  0
  1  2  1  1  0  0  0
  1  7  1  0  0  0  0
  1 21  1  0  0  0  0
  3  4  1  0  0  0  0
  4  5  2  0  0  0  0
  6  5  1  0  0  0  0
  7  6  2  0  0  0  0
  8  3  2  0  0  0  0
  8  7  1  0  0  0  0
  9 11  1  0  0  0  0
 10  9  2  0  0  0  0
 11  3  1  0  0  0  0
 12 11  1  0  0  0  0
 13 14  1  0  0  0  0
 14 15  2  0  0  0  0
 16  9  1  0  0  0  0
 16 15  1  0  0  0  0
 17 16  2  0  0  0  0
 18 17  1  0  0  0  0
 18 13  2  0  0  0  0
 19 20  1  0  0  0  0
 20 13  1  0  0  0  0
 21 22  1  0  0  0  0
 21 23  1  0  0  0  0
 23 32  1  0  0  0  0
 24 25  1  0  0  0  0
 24 23  2  0  0  0  0
 25 26  2  0  0  0  0
 26 27  1  0  0  0  0
 27 28  1  0  0  0  0
 28 33  1  0  0  0  0
 28 29  2  0  0  0  0
 30 29  1  0  0  0  0
 31 30  2  0  0  0  0
 32 27  2  0  0  0  0
 32 31  1  0  0  0  0
 33 35  2  0  0  0  0
 34 36  1  0  0  0  0
 34 33  1  0  0  0  0
 37 34  1  0  0  0  0
M  END
>  <minimizedAffinity>
-5.83191681

$$$$
