
 OpenBabel10152418263D

 37 40  0  0  1  0  0  0  0  0999 V2000
    2.2330  -11.2840  -24.8100 C   0  0  2  0  0  3  0  0  0  0  0  0
    1.9250   -9.9470  -24.1270 C   0  0  0  0  0  1  0  0  0  0  0  0
    4.1190   -9.5320  -27.6570 C   0  0  0  0  0  0  0  0  0  0  0  0
    4.0550  -10.4950  -28.6650 C   0  0  0  0  0  3  0  0  0  0  0  0
    3.5300  -11.7580  -28.3960 C   0  0  0  0  0  3  0  0  0  0  0  0
    2.9880  -12.0390  -27.1420 C   0  0  0  0  0  3  0  0  0  0  0  0
    2.9680  -11.0590  -26.1360 C   0  0  0  0  0  0  0  0  0  0  0  0
    3.6000   -9.8220  -26.3900 C   0  0  0  0  0  3  0  0  0  0  0  0
    3.8660   -7.2190  -28.5830 C   0  0  0  0  0  0  0  0  0  0  0  0
    4.3880   -6.4770  -29.4110 O   0  0  0  0  0  0  0  0  0  0  0  0
    4.5730   -8.2490  -28.0110 N   0  0  0  0  0  0  0  0  0  0  0  0
    5.5750   -8.1050  -28.0050 H   0  0  0  0  0  0  0  0  0  0  0  0
    0.1990   -5.8590  -27.0010 C   0  0  0  0  0  0  0  0  0  0  0  0
    0.9980   -6.6580  -26.1940 C   0  0  0  0  0  3  0  0  0  0  0  0
    2.1790   -7.1790  -26.7250 C   0  0  0  0  0  3  0  0  0  0  0  0
    2.5370   -6.8680  -28.0380 C   0  0  0  0  0  0  0  0  0  0  0  0
    1.6940   -6.0370  -28.7580 C   0  0  0  0  0  3  0  0  0  0  0  0
    0.5250   -5.5460  -28.2750 N   0  0  0  0  0  0  0  0  0  0  0  0
   -0.7890   -3.8380  -26.3400 C   0  0  0  0  0  1  0  0  0  0  0  0
   -0.9350   -5.2390  -26.5540 O   0  0  0  0  0  0  0  0  0  0  0  0
    0.9910  -12.0230  -25.0050 N   0  0  0  0  0  0  0  0  0  0  0  0
    0.9550  -13.0000  -24.7630 H   0  0  0  0  0  0  0  0  0  0  0  0
   -0.1760  -11.2620  -25.0190 C   0  0  0  0  0  0  0  0  0  0  0  0
   -0.3990  -10.5340  -26.1270 N   0  0  0  0  0  0  0  0  0  0  0  0
   -1.2200   -9.4970  -26.0050 C   0  0  0  0  0  3  0  0  0  0  0  0
   -1.7560   -9.0740  -24.8600 N   0  0  0  0  0  0  0  0  0  0  0  0
   -1.5790   -9.8430  -23.7700 C   0  0  0  0  0  0  0  0  0  0  0  0
   -2.0170   -9.4370  -22.5090 C   0  0  0  0  0  0  0  0  0  0  0  0
   -1.9680  -10.2550  -21.3710 C   0  0  0  0  0  3  0  0  0  0  0  0
   -1.4050  -11.5160  -21.4690 C   0  0  0  0  0  3  0  0  0  0  0  0
   -0.8170  -11.8910  -22.6740 C   0  0  0  0  0  3  0  0  0  0  0  0
   -0.8730  -11.0470  -23.8190 C   0  0  0  0  0  0  0  0  0  0  0  0
   -2.2700   -8.0020  -22.2930 C   0  0  0  0  0  0  0  0  0  0  0  0
   -3.5430   -7.6190  -22.6320 N   0  0  0  0  0  0  0  0  0  0  0  0
   -1.4230   -7.2220  -21.8890 O   0  0  0  0  0  0  0  0  0  0  0  0
   -3.8020   -6.6490  -22.5320 H   0  0  0  0  0  0  0  0  0  0  0  0
   -4.2420   -8.2830  -22.9440 H   0  0  0  0  0  0  0  0  0  0  0  0
  1  2  1  6  0  0  0
  3  8  1  0  0  0  0
  4  5  1  0  0  0  0
  4  3  2  0  0  0  0
  5  6  2  0  0  0  0
  6  7  1  0  0  0  0
  7  1  1  0  0  0  0
  8  7  2  0  0  0  0
  9 16  1  0  0  0  0
  9 11  1  0  0  0  0
 10  9  2  0  0  0  0
 11 12  1  0  0  0  0
 11  3  1  0  0  0  0
 13 20  1  0  0  0  0
 13 14  1  0  0  0  0
 15 14  2  0  0  0  0
 16 15  1  0  0  0  0
 17 18  1  0  0  0  0
 17 16  2  0  0  0  0
 18 13  2  0  0  0  0
 20 19  1  0  0  0  0
 21  1  1  0  0  0  0
 21 22  1  0  0  0  0
 23 21  1  0  0  0  0
 23 32  1  0  0  0  0
 24 25  1  0  0  0  0
 24 23  2  0  0  0  0
 25 26  2  0  0  0  0
 26 27  1  0  0  0  0
 27 28  1  0  0  0  0
 28 33  1  0  0  0  0
 28 29  2  0  0  0  0
 30 29  1  0  0  0  0
 31 30  2  0  0  0  0
 32 27  2  0  0  0  0
 32 31  1  0  0  0  0
 33 35  2  0  0  0  0
 34 36  1  0  0  0  0
 34 33  1  0  0  0  0
 37 34  1  0  0  0  0
M  END
>  <minimizedAffinity>
-8.19541264

$$$$

 OpenBabel10152418263D

 37 40  0  0  1  0  0  0  0  0999 V2000
   -0.1540  -11.6990  -25.5480 C   0  0  2  0  0  3  0  0  0  0  0  0
   -0.3890  -10.6270  -26.6180 C   0  0  0  0  0  1  0  0  0  0  0  0
   -1.7340   -9.4960  -22.8320 C   0  0  0  0  0  0  0  0  0  0  0  0
   -1.5110  -10.2640  -21.6880 C   0  0  0  0  0  3  0  0  0  0  0  0
   -0.9800  -11.5480  -21.7980 C   0  0  0  0  0  3  0  0  0  0  0  0
   -0.5870  -12.0390  -23.0440 C   0  0  0  0  0  3  0  0  0  0  0  0
   -0.7270  -11.2520  -24.1980 C   0  0  0  0  0  0  0  0  0  0  0  0
   -1.3660   -9.9980  -24.0850 C   0  0  0  0  0  3  0  0  0  0  0  0
   -1.5520   -7.0020  -22.9780 C   0  0  0  0  0  0  0  0  0  0  0  0
   -1.6480   -6.0100  -22.2610 O   0  0  0  0  0  0  0  0  0  0  0  0
   -2.1860   -8.1770  -22.6510 N   0  0  0  0  0  0  0  0  0  0  0  0
   -2.9990   -8.0530  -22.0590 H   0  0  0  0  0  0  0  0  0  0  0  0
    0.1090   -6.2580  -26.7850 C   0  0  0  0  0  0  0  0  0  0  0  0
   -1.0150   -7.0710  -26.7140 C   0  0  0  0  0  3  0  0  0  0  0  0
   -1.5350   -7.3890  -25.4580 C   0  0  0  0  0  3  0  0  0  0  0  0
   -0.9290   -6.8690  -24.3130 C   0  0  0  0  0  0  0  0  0  0  0  0
    0.1690   -6.0410  -24.4820 C   0  0  0  0  0  3  0  0  0  0  0  0
    0.7120   -5.7440  -25.6900 N   0  0  0  0  0  0  0  0  0  0  0  0
    1.1510   -4.4930  -27.9240 C   0  0  0  0  0  1  0  0  0  0  0  0
    0.6490   -5.8250  -27.9650 O   0  0  0  0  0  0  0  0  0  0  0  0
    1.2740  -11.9840  -25.4560 N   0  0  0  0  0  0  0  0  0  0  0  0
    1.6150  -12.8910  -25.7290 H   0  0  0  0  0  0  0  0  0  0  0  0
    2.1200  -10.8770  -25.4960 C   0  0  0  0  0  0  0  0  0  0  0  0
    1.8500   -9.8900  -24.6240 N   0  0  0  0  0  0  0  0  0  0  0  0
    2.3240   -8.6850  -24.9200 C   0  0  0  0  0  3  0  0  0  0  0  0
    2.9570   -8.3670  -26.0500 N   0  0  0  0  0  0  0  0  0  0  0  0
    3.2780   -9.3710  -26.8860 C   0  0  0  0  0  0  0  0  0  0  0  0
    3.8520   -9.1290  -28.1350 C   0  0  0  0  0  0  0  0  0  0  0  0
    4.3170  -10.1430  -28.9840 C   0  0  0  0  0  3  0  0  0  0  0  0
    4.1540  -11.4660  -28.6080 C   0  0  0  0  0  3  0  0  0  0  0  0
    3.4450  -11.7460  -27.4440 C   0  0  0  0  0  3  0  0  0  0  0  0
    2.9780  -10.7040  -26.5940 C   0  0  0  0  0  0  0  0  0  0  0  0
    3.7020   -7.7840  -28.7160 C   0  0  0  0  0  0  0  0  0  0  0  0
    4.5000   -6.8430  -28.1160 N   0  0  0  0  0  0  0  0  0  0  0  0
    2.9220   -7.5220  -29.6160 O   0  0  0  0  0  0  0  0  0  0  0  0
    4.4530   -5.8880  -28.4390 H   0  0  0  0  0  0  0  0  0  0  0  0
    5.1600   -7.0810  -27.3860 H   0  0  0  0  0  0  0  0  0  0  0  0
  1  2  1  6  0  0  0
  1 21  1  0  0  0  0
  1  7  1  0  0  0  0
  3 11  1  0  0  0  0
  3  4  1  0  0  0  0
  5  4  2  0  0  0  0
  6  5  1  0  0  0  0
  7  8  1  0  0  0  0
  7  6  2  0  0  0  0
  8  3  2  0  0  0  0
  9 11  1  0  0  0  0
  9 10  2  0  0  0  0
 11 12  1  0  0  0  0
 13 14  1  0  0  0  0
 13 18  2  0  0  0  0
 14 15  2  0  0  0  0
 15 16  1  0  0  0  0
 16  9  1  0  0  0  0
 17 16  2  0  0  0  0
 18 17  1  0  0  0  0
 20 19  1  0  0  0  0
 20 13  1  0  0  0  0
 22 21  1  0  0  0  0
 23 21  1  0  0  0  0
 23 24  1  0  0  0  0
 25 24  2  0  0  0  0
 26 25  1  0  0  0  0
 27 32  1  0  0  0  0
 27 26  2  0  0  0  0
 28 27  1  0  0  0  0
 29 30  1  0  0  0  0
 29 28  2  0  0  0  0
 30 31  2  0  0  0  0
 31 32  1  0  0  0  0
 32 23  2  0  0  0  0
 33 28  1  0  0  0  0
 33 34  1  0  0  0  0
 34 37  1  0  0  0  0
 35 33  2  0  0  0  0
 36 34  1  0  0  0  0
M  END
>  <minimizedAffinity>
-8.14098167

$$$$

 OpenBabel10152418263D

 37 40  0  0  1  0  0  0  0  0999 V2000
    0.1840   -9.5260  -26.4790 C   0  0  2  0  0  3  0  0  0  0  0  0
   -1.1780   -9.6460  -27.1700 C   0  0  0  0  0  1  0  0  0  0  0  0
   -0.7600  -11.5390  -23.3500 C   0  0  0  0  0  0  0  0  0  0  0  0
    0.4830  -12.0370  -22.9560 C   0  0  0  0  0  3  0  0  0  0  0  0
    1.6040  -11.8460  -23.7630 C   0  0  0  0  0  3  0  0  0  0  0  0
    1.5060  -11.0810  -24.9270 C   0  0  0  0  0  3  0  0  0  0  0  0
    0.2830  -10.5020  -25.3010 C   0  0  0  0  0  0  0  0  0  0  0  0
   -0.8640  -10.7950  -24.5310 C   0  0  0  0  0  3  0  0  0  0  0  0
   -2.1500  -10.9050  -21.3650 C   0  0  0  0  0  0  0  0  0  0  0  0
   -2.6060  -11.4060  -20.3420 O   0  0  0  0  0  0  0  0  0  0  0  0
   -1.8320  -11.6840  -22.4530 N   0  0  0  0  0  0  0  0  0  0  0  0
   -2.3470  -12.5550  -22.4970 H   0  0  0  0  0  0  0  0  0  0  0  0
   -1.8500   -6.7480  -22.0230 C   0  0  0  0  0  0  0  0  0  0  0  0
   -1.4330   -7.2440  -20.7940 C   0  0  0  0  0  3  0  0  0  0  0  0
   -1.5920   -8.6050  -20.5300 C   0  0  0  0  0  3  0  0  0  0  0  0
   -2.1450   -9.4340  -21.5080 C   0  0  0  0  0  0  0  0  0  0  0  0
   -2.5030   -8.8570  -22.7160 C   0  0  0  0  0  3  0  0  0  0  0  0
   -2.3880   -7.5320  -22.9840 N   0  0  0  0  0  0  0  0  0  0  0  0
   -0.3860   -5.1810  -22.9680 C   0  0  0  0  0  1  0  0  0  0  0  0
   -1.6680   -5.4490  -22.4090 O   0  0  0  0  0  0  0  0  0  0  0  0
    0.3860   -8.1470  -26.0490 N   0  0  0  0  0  0  0  0  0  0  0  0
    0.2710   -7.9100  -25.0770 H   0  0  0  0  0  0  0  0  0  0  0  0
    1.2020   -7.3670  -26.8660 C   0  0  0  0  0  0  0  0  0  0  0  0
    0.5950   -6.3750  -27.5410 N   0  0  0  0  0  0  0  0  0  0  0  0
    1.2170   -5.9210  -28.6230 C   0  0  0  0  0  3  0  0  0  0  0  0
    2.3350   -6.4340  -29.1370 N   0  0  0  0  0  0  0  0  0  0  0  0
    2.9690   -7.3830  -28.4230 C   0  0  0  0  0  0  0  0  0  0  0  0
    4.0890   -8.0470  -28.9210 C   0  0  0  0  0  0  0  0  0  0  0  0
    4.8540   -8.9490  -28.1670 C   0  0  0  0  0  3  0  0  0  0  0  0
    4.4600   -9.2550  -26.8750 C   0  0  0  0  0  3  0  0  0  0  0  0
    3.2600   -8.7300  -26.4030 C   0  0  0  0  0  3  0  0  0  0  0  0
    2.4940   -7.8180  -27.1830 C   0  0  0  0  0  0  0  0  0  0  0  0
    4.3130   -8.0320  -30.3770 C   0  0  0  0  0  0  0  0  0  0  0  0
    4.8330   -6.8470  -30.8320 N   0  0  0  0  0  0  0  0  0  0  0  0
    4.0310   -8.9640  -31.1110 O   0  0  0  0  0  0  0  0  0  0  0  0
    5.0050   -6.7390  -31.8210 H   0  0  0  0  0  0  0  0  0  0  0  0
    5.0840   -6.0910  -30.2060 H   0  0  0  0  0  0  0  0  0  0  0  0
  1  2  1  1  0  0  0
  1 21  1  0  0  0  0
  1  7  1  0  0  0  0
  3  4  1  0  0  0  0
  3 11  1  0  0  0  0
  5  4  2  0  0  0  0
  6  5  1  0  0  0  0
  7  6  2  0  0  0  0
  7  8  1  0  0  0  0
  8  3  2  0  0  0  0
  9 10  2  0  0  0  0
 11  9  1  0  0  0  0
 12 11  1  0  0  0  0
 13 14  1  0  0  0  0
 14 15  2  0  0  0  0
 16  9  1  0  0  0  0
 16 15  1  0  0  0  0
 17 16  2  0  0  0  0
 18 17  1  0  0  0  0
 18 13  2  0  0  0  0
 19 20  1  0  0  0  0
 20 13  1  0  0  0  0
 21 22  1  0  0  0  0
 23 21  1  0  0  0  0
 24 23  2  0  0  0  0
 25 24  1  0  0  0  0
 26 25  2  0  0  0  0
 26 27  1  0  0  0  0
 27 32  1  0  0  0  0
 28 27  2  0  0  0  0
 28 29  1  0  0  0  0
 29 30  2  0  0  0  0
 30 31  1  0  0  0  0
 32 23  1  0  0  0  0
 32 31  2  0  0  0  0
 33 28  1  0  0  0  0
 34 33  1  0  0  0  0
 34 37  1  0  0  0  0
 35 33  2  0  0  0  0
 36 34  1  0  0  0  0
M  END
>  <minimizedAffinity>
-7.51559305

$$$$

 OpenBabel10152418263D

 37 40  0  0  1  0  0  0  0  0999 V2000
    1.9100  -11.5800  -25.0390 C   0  0  2  0  0  3  0  0  0  0  0  0
    3.2900  -12.0390  -24.5550 C   0  0  0  0  0  1  0  0  0  0  0  0
    2.4040   -8.0890  -26.5540 C   0  0  0  0  0  0  0  0  0  0  0  0
    2.1170   -7.2700  -25.4610 C   0  0  0  0  0  3  0  0  0  0  0  0
    1.6310   -7.8230  -24.2780 C   0  0  0  0  0  3  0  0  0  0  0  0
    1.5130   -9.2080  -24.1500 C   0  0  0  0  0  3  0  0  0  0  0  0
    1.8730  -10.0570  -25.2080 C   0  0  0  0  0  0  0  0  0  0  0  0
    2.2600   -9.4760  -26.4360 C   0  0  0  0  0  3  0  0  0  0  0  0
    2.3550   -6.7540  -28.6730 C   0  0  0  0  0  0  0  0  0  0  0  0
    2.7140   -6.8390  -29.8440 O   0  0  0  0  0  0  0  0  0  0  0  0
    2.9760   -7.4840  -27.6870 N   0  0  0  0  0  0  0  0  0  0  0  0
    3.9280   -7.7480  -27.9110 H   0  0  0  0  0  0  0  0  0  0  0  0
   -0.1510   -3.6560  -27.2850 C   0  0  0  0  0  0  0  0  0  0  0  0
   -0.5890   -4.9650  -27.1290 C   0  0  0  0  0  3  0  0  0  0  0  0
    0.1910   -6.0000  -27.6480 C   0  0  0  0  0  3  0  0  0  0  0  0
    1.3950   -5.6970  -28.2880 C   0  0  0  0  0  0  0  0  0  0  0  0
    1.7670   -4.3650  -28.3690 C   0  0  0  0  0  3  0  0  0  0  0  0
    1.0090   -3.3400  -27.9020 N   0  0  0  0  0  0  0  0  0  0  0  0
   -1.1060   -2.7120  -25.3630 C   0  0  0  0  0  1  0  0  0  0  0  0
   -0.8000   -2.5790  -26.7480 O   0  0  0  0  0  0  0  0  0  0  0  0
    0.8930  -12.0390  -24.1000 N   0  0  0  0  0  0  0  0  0  0  0  0
    1.1730  -12.3780  -23.1950 H   0  0  0  0  0  0  0  0  0  0  0  0
   -0.3870  -11.5200  -24.2860 C   0  0  0  0  0  0  0  0  0  0  0  0
   -0.7600  -11.3000  -25.5590 N   0  0  0  0  0  0  0  0  0  0  0  0
   -1.7430  -10.4270  -25.7510 C   0  0  0  0  0  3  0  0  0  0  0  0
   -2.3120   -9.6920  -24.7960 N   0  0  0  0  0  0  0  0  0  0  0  0
   -1.9780   -9.9620  -23.5210 C   0  0  0  0  0  0  0  0  0  0  0  0
   -2.4440   -9.1840  -22.4610 C   0  0  0  0  0  0  0  0  0  0  0  0
   -2.2260   -9.5010  -21.1120 C   0  0  0  0  0  3  0  0  0  0  0  0
   -1.4590  -10.6080  -20.7940 C   0  0  0  0  0  3  0  0  0  0  0  0
   -0.8480  -11.3150  -21.8260 C   0  0  0  0  0  3  0  0  0  0  0  0
   -1.0790  -10.9780  -23.1900 C   0  0  0  0  0  0  0  0  0  0  0  0
   -2.9320   -7.8270  -22.7600 C   0  0  0  0  0  0  0  0  0  0  0  0
   -4.2840   -7.7750  -22.9860 N   0  0  0  0  0  0  0  0  0  0  0  0
   -2.2050   -6.8510  -22.8380 O   0  0  0  0  0  0  0  0  0  0  0  0
   -4.7060   -6.8880  -23.2150 H   0  0  0  0  0  0  0  0  0  0  0  0
   -4.8790   -8.5900  -22.8950 H   0  0  0  0  0  0  0  0  0  0  0  0
  1  2  1  1  0  0  0
  1 21  1  0  0  0  0
  3  8  2  0  0  0  0
  3  4  1  0  0  0  0
  4  5  2  0  0  0  0
  5  6  1  0  0  0  0
  7  1  1  0  0  0  0
  7  6  2  0  0  0  0
  8  7  1  0  0  0  0
  9 16  1  0  0  0  0
  9 11  1  0  0  0  0
 10  9  2  0  0  0  0
 11  3  1  0  0  0  0
 12 11  1  0  0  0  0
 13 14  1  0  0  0  0
 13 20  1  0  0  0  0
 15 14  2  0  0  0  0
 16 15  1  0  0  0  0
 17 16  2  0  0  0  0
 17 18  1  0  0  0  0
 18 13  2  0  0  0  0
 20 19  1  0  0  0  0
 21 22  1  0  0  0  0
 23 21  1  0  0  0  0
 23 32  1  0  0  0  0
 24 23  2  0  0  0  0
 25 24  1  0  0  0  0
 25 26  2  0  0  0  0
 26 27  1  0  0  0  0
 27 32  2  0  0  0  0
 27 28  1  0  0  0  0
 28 29  2  0  0  0  0
 29 30  1  0  0  0  0
 31 30  2  0  0  0  0
 32 31  1  0  0  0  0
 33 28  1  0  0  0  0
 34 37  1  0  0  0  0
 34 33  1  0  0  0  0
 35 33  2  0  0  0  0
 36 34  1  0  0  0  0
M  END
>  <minimizedAffinity>
-7.42190027

$$$$

 OpenBabel10152418263D

 37 40  0  0  1  0  0  0  0  0999 V2000
    1.0540  -11.0530  -25.7430 C   0  0  2  0  0  3  0  0  0  0  0  0
    0.3110  -11.9090  -26.7740 C   0  0  0  0  0  1  0  0  0  0  0  0
    3.9040   -9.3840  -27.6970 C   0  0  0  0  0  0  0  0  0  0  0  0
    4.9730  -10.2330  -27.4070 C   0  0  0  0  0  3  0  0  0  0  0  0
    4.8200  -11.2620  -26.4790 C   0  0  0  0  0  3  0  0  0  0  0  0
    3.5740  -11.5020  -25.8980 C   0  0  0  0  0  3  0  0  0  0  0  0
    2.4640  -10.7100  -26.2360 C   0  0  0  0  0  0  0  0  0  0  0  0
    2.6610   -9.6070  -27.0950 C   0  0  0  0  0  3  0  0  0  0  0  0
    3.1530   -7.6190  -29.3080 C   0  0  0  0  0  0  0  0  0  0  0  0
    3.2240   -7.3480  -30.5030 O   0  0  0  0  0  0  0  0  0  0  0  0
    4.0910   -8.4240  -28.7070 N   0  0  0  0  0  0  0  0  0  0  0  0
    4.9880   -8.4300  -29.1790 H   0  0  0  0  0  0  0  0  0  0  0  0
    0.1190   -5.5940  -27.1860 C   0  0  0  0  0  0  0  0  0  0  0  0
    1.2170   -4.8570  -27.6130 C   0  0  0  0  0  3  0  0  0  0  0  0
    2.2650   -5.5220  -28.2510 C   0  0  0  0  0  3  0  0  0  0  0  0
    2.1760   -6.8990  -28.4630 C   0  0  0  0  0  0  0  0  0  0  0  0
    1.0290   -7.5470  -28.0310 C   0  0  0  0  0  3  0  0  0  0  0  0
    0.0120   -6.9270  -27.3800 N   0  0  0  0  0  0  0  0  0  0  0  0
   -0.9030   -3.6170  -26.4500 C   0  0  0  0  0  1  0  0  0  0  0  0
   -0.9910   -5.0280  -26.6220 O   0  0  0  0  0  0  0  0  0  0  0  0
    1.0900  -11.7590  -24.4670 N   0  0  0  0  0  0  0  0  0  0  0  0
    1.8620  -12.3730  -24.2640 H   0  0  0  0  0  0  0  0  0  0  0  0
    0.3670  -11.1780  -23.4270 C   0  0  0  0  0  0  0  0  0  0  0  0
   -0.2900  -12.0230  -22.6140 N   0  0  0  0  0  0  0  0  0  0  0  0
   -1.3070  -11.5190  -21.9240 C   0  0  0  0  0  3  0  0  0  0  0  0
   -1.7780  -10.2780  -22.0490 N   0  0  0  0  0  0  0  0  0  0  0  0
   -1.0780   -9.4220  -22.8160 C   0  0  0  0  0  0  0  0  0  0  0  0
   -1.5410   -8.1340  -23.0870 C   0  0  0  0  0  0  0  0  0  0  0  0
   -0.7910   -7.1690  -23.7730 C   0  0  0  0  0  3  0  0  0  0  0  0
    0.4560   -7.5090  -24.2690 C   0  0  0  0  0  3  0  0  0  0  0  0
    0.8810   -8.8300  -24.1540 C   0  0  0  0  0  3  0  0  0  0  0  0
    0.1050   -9.7980  -23.4560 C   0  0  0  0  0  0  0  0  0  0  0  0
   -2.9780   -7.8630  -22.9060 C   0  0  0  0  0  0  0  0  0  0  0  0
   -3.3600   -7.8210  -21.5890 N   0  0  0  0  0  0  0  0  0  0  0  0
   -3.7590   -7.7260  -23.8330 O   0  0  0  0  0  0  0  0  0  0  0  0
   -4.3310   -7.6570  -21.3690 H   0  0  0  0  0  0  0  0  0  0  0  0
   -2.6950   -7.9130  -20.8310 H   0  0  0  0  0  0  0  0  0  0  0  0
  1  2  1  6  0  0  0
  1 21  1  0  0  0  0
  3  4  2  0  0  0  0
  3  8  1  0  0  0  0
  4  5  1  0  0  0  0
  5  6  2  0  0  0  0
  7  6  1  0  0  0  0
  7  1  1  0  0  0  0
  8  7  2  0  0  0  0
  9 11  1  0  0  0  0
  9 16  1  0  0  0  0
 10  9  2  0  0  0  0
 11  3  1  0  0  0  0
 12 11  1  0  0  0  0
 13 20  1  0  0  0  0
 14 13  1  0  0  0  0
 15 14  2  0  0  0  0
 16 15  1  0  0  0  0
 16 17  2  0  0  0  0
 17 18  1  0  0  0  0
 18 13  2  0  0  0  0
 20 19  1  0  0  0  0
 21 22  1  0  0  0  0
 21 23  1  0  0  0  0
 23 24  1  0  0  0  0
 24 25  2  0  0  0  0
 26 25  1  0  0  0  0
 27 26  2  0  0  0  0
 28 33  1  0  0  0  0
 28 27  1  0  0  0  0
 29 28  2  0  0  0  0
 30 31  2  0  0  0  0
 30 29  1  0  0  0  0
 31 32  1  0  0  0  0
 32 23  2  0  0  0  0
 32 27  1  0  0  0  0
 33 34  1  0  0  0  0
 34 36  1  0  0  0  0
 34 37  1  0  0  0  0
 35 33  2  0  0  0  0
M  END
>  <minimizedAffinity>
-6.79016399

$$$$

 OpenBabel10152418263D

 37 40  0  0  1  0  0  0  0  0999 V2000
   -1.0590   -7.8790  -26.2870 C   0  0  2  0  0  3  0  0  0  0  0  0
   -0.4400   -9.2650  -26.4900 C   0  0  0  0  0  1  0  0  0  0  0  0
    1.6130   -6.2400  -28.5000 C   0  0  0  0  0  0  0  0  0  0  0  0
    1.5040   -4.9010  -28.1210 C   0  0  0  0  0  3  0  0  0  0  0  0
    0.4860   -4.4970  -27.2590 C   0  0  0  0  0  3  0  0  0  0  0  0
   -0.3780   -5.4420  -26.7030 C   0  0  0  0  0  3  0  0  0  0  0  0
   -0.2360   -6.8060  -27.0070 C   0  0  0  0  0  0  0  0  0  0  0  0
    0.7310   -7.1850  -27.9650 C   0  0  0  0  0  3  0  0  0  0  0  0
    3.8670   -7.2470  -28.9220 C   0  0  0  0  0  0  0  0  0  0  0  0
    4.9480   -6.9510  -29.4220 O   0  0  0  0  0  0  0  0  0  0  0  0
    2.7130   -6.6020  -29.2980 N   0  0  0  0  0  0  0  0  0  0  0  0
    2.7520   -6.2010  -30.2270 H   0  0  0  0  0  0  0  0  0  0  0  0
    3.2530  -10.7460  -26.6440 C   0  0  0  0  0  0  0  0  0  0  0  0
    3.2270   -9.5260  -25.9810 C   0  0  0  0  0  3  0  0  0  0  0  0
    3.5020   -8.3630  -26.7030 C   0  0  0  0  0  3  0  0  0  0  0  0
    3.7730   -8.4520  -28.0700 C   0  0  0  0  0  0  0  0  0  0  0  0
    3.7450   -9.7090  -28.6540 C   0  0  0  0  0  3  0  0  0  0  0  0
    3.5130  -10.8550  -27.9660 N   0  0  0  0  0  0  0  0  0  0  0  0
    3.3270  -12.0310  -24.6850 C   0  0  0  0  0  1  0  0  0  0  0  0
    2.9230  -11.9310  -26.0470 O   0  0  0  0  0  0  0  0  0  0  0  0
   -1.1650   -7.6030  -24.8580 N   0  0  0  0  0  0  0  0  0  0  0  0
   -1.9060   -7.0090  -24.5240 H   0  0  0  0  0  0  0  0  0  0  0  0
   -0.5880   -8.5460  -24.0100 C   0  0  0  0  0  0  0  0  0  0  0  0
    0.0960   -9.5390  -24.6040 N   0  0  0  0  0  0  0  0  0  0  0  0
    0.2670  -10.6520  -23.8980 C   0  0  0  0  0  3  0  0  0  0  0  0
   -0.2670  -10.8880  -22.6990 N   0  0  0  0  0  0  0  0  0  0  0  0
   -0.8970   -9.8690  -22.0870 C   0  0  0  0  0  0  0  0  0  0  0  0
   -1.5700  -10.0450  -20.8780 C   0  0  0  0  0  0  0  0  0  0  0  0
   -2.1310   -8.9910  -20.1430 C   0  0  0  0  0  3  0  0  0  0  0  0
   -2.0770   -7.7060  -20.6560 C   0  0  0  0  0  3  0  0  0  0  0  0
   -1.5530   -7.5190  -21.9310 C   0  0  0  0  0  3  0  0  0  0  0  0
   -0.9890   -8.6010  -22.6650 C   0  0  0  0  0  0  0  0  0  0  0  0
   -1.9650  -11.4120  -20.4980 C   0  0  0  0  0  0  0  0  0  0  0  0
   -1.0450  -12.0390  -19.6960 N   0  0  0  0  0  0  0  0  0  0  0  0
   -2.9880  -11.9500  -20.8860 O   0  0  0  0  0  0  0  0  0  0  0  0
   -1.2240  -12.9860  -19.3980 H   0  0  0  0  0  0  0  0  0  0  0  0
   -0.2110  -11.5700  -19.3630 H   0  0  0  0  0  0  0  0  0  0  0  0
  1  2  1  1  0  0  0
  1 21  1  0  0  0  0
  3  4  2  0  0  0  0
  3  8  1  0  0  0  0
  4  5  1  0  0  0  0
  5  6  2  0  0  0  0
  7  6  1  0  0  0  0
  7  1  1  0  0  0  0
  8  7  2  0  0  0  0
  9 16  1  0  0  0  0
 10  9  2  0  0  0  0
 11  9  1  0  0  0  0
 11  3  1  0  0  0  0
 12 11  1  0  0  0  0
 13 20  1  0  0  0  0
 13 14  1  0  0  0  0
 15 14  2  0  0  0  0
 16 15  1  0  0  0  0
 17 16  2  0  0  0  0
 17 18  1  0  0  0  0
 18 13  2  0  0  0  0
 20 19  1  0  0  0  0
 21 22  1  0  0  0  0
 21 23  1  0  0  0  0
 23 32  1  0  0  0  0
 24 23  2  0  0  0  0
 24 25  1  0  0  0  0
 25 26  2  0  0  0  0
 26 27  1  0  0  0  0
 27 28  1  0  0  0  0
 28 33  1  0  0  0  0
 28 29  2  0  0  0  0
 30 29  1  0  0  0  0
 31 30  2  0  0  0  0
 32 27  2  0  0  0  0
 32 31  1  0  0  0  0
 33 34  1  0  0  0  0
 34 36  1  0  0  0  0
 34 37  1  0  0  0  0
 35 33  2  0  0  0  0
M  END
>  <minimizedAffinity>
-6.26987362

$$$$

 OpenBabel10152418263D

 37 40  0  0  1  0  0  0  0  0999 V2000
    0.5940  -10.7050  -26.0990 C   0  0  2  0  0  3  0  0  0  0  0  0
    2.0040  -11.3010  -26.1520 C   0  0  0  0  0  1  0  0  0  0  0  0
    0.6470   -6.8900  -26.5120 C   0  0  0  0  0  0  0  0  0  0  0  0
    1.0420   -6.4790  -25.2390 C   0  0  0  0  0  3  0  0  0  0  0  0
    1.1600   -7.4080  -24.2060 C   0  0  0  0  0  3  0  0  0  0  0  0
    0.9670   -8.7670  -24.4620 C   0  0  0  0  0  3  0  0  0  0  0  0
    0.6480   -9.2120  -25.7550 C   0  0  0  0  0  0  0  0  0  0  0  0
    0.4270   -8.2490  -26.7630 C   0  0  0  0  0  3  0  0  0  0  0  0
    1.6950   -5.4180  -28.2470 C   0  0  0  0  0  0  0  0  0  0  0  0
    1.7280   -4.2370  -28.5800 O   0  0  0  0  0  0  0  0  0  0  0  0
    0.6340   -5.9230  -27.5330 N   0  0  0  0  0  0  0  0  0  0  0  0
   -0.2270   -5.4040  -27.6560 H   0  0  0  0  0  0  0  0  0  0  0  0
    4.2940   -8.3620  -29.7910 C   0  0  0  0  0  0  0  0  0  0  0  0
    4.5900   -7.8220  -28.5460 C   0  0  0  0  0  3  0  0  0  0  0  0
    3.7840   -6.7950  -28.0510 C   0  0  0  0  0  3  0  0  0  0  0  0
    2.6960   -6.3520  -28.8050 C   0  0  0  0  0  0  0  0  0  0  0  0
    2.4590   -6.9710  -30.0220 C   0  0  0  0  0  3  0  0  0  0  0  0
    3.2460   -7.9480  -30.5380 N   0  0  0  0  0  0  0  0  0  0  0  0
    4.3950   -9.9350  -31.5260 C   0  0  0  0  0  1  0  0  0  0  0  0
    4.9720   -9.4200  -30.3300 O   0  0  0  0  0  0  0  0  0  0  0  0
   -0.2080  -11.4480  -25.1320 N   0  0  0  0  0  0  0  0  0  0  0  0
    0.2030  -12.2270  -24.6450 H   0  0  0  0  0  0  0  0  0  0  0  0
   -1.2790  -10.7570  -24.5680 C   0  0  0  0  0  0  0  0  0  0  0  0
   -1.9050   -9.8760  -25.3680 N   0  0  0  0  0  0  0  0  0  0  0  0
   -2.6010   -8.9160  -24.7690 C   0  0  0  0  0  3  0  0  0  0  0  0
   -2.6440   -8.7070  -23.4530 N   0  0  0  0  0  0  0  0  0  0  0  0
   -2.0670   -9.6280  -22.6590 C   0  0  0  0  0  0  0  0  0  0  0  0
   -1.9750   -9.4480  -21.2780 C   0  0  0  0  0  0  0  0  0  0  0  0
   -1.4970  -10.4310  -20.3990 C   0  0  0  0  0  3  0  0  0  0  0  0
   -1.0330  -11.6300  -20.9140 C   0  0  0  0  0  3  0  0  0  0  0  0
   -0.9650  -11.7800  -22.2960 C   0  0  0  0  0  3  0  0  0  0  0  0
   -1.4510  -10.7700  -23.1740 C   0  0  0  0  0  0  0  0  0  0  0  0
   -2.1050   -8.0810  -20.7470 C   0  0  0  0  0  0  0  0  0  0  0  0
   -1.8230   -7.1100  -21.6750 N   0  0  0  0  0  0  0  0  0  0  0  0
   -2.3970   -7.8330  -19.5900 O   0  0  0  0  0  0  0  0  0  0  0  0
   -1.8700   -6.1420  -21.3960 H   0  0  0  0  0  0  0  0  0  0  0  0
   -1.6050   -7.3320  -22.6390 H   0  0  0  0  0  0  0  0  0  0  0  0
  1  2  1  1  0  0  0
  1  7  1  0  0  0  0
  1 21  1  0  0  0  0
  3  4  1  0  0  0  0
  4  5  2  0  0  0  0
  6  5  1  0  0  0  0
  7  6  2  0  0  0  0
  8  3  2  0  0  0  0
  8  7  1  0  0  0  0
  9 11  1  0  0  0  0
 10  9  2  0  0  0  0
 11  3  1  0  0  0  0
 12 11  1  0  0  0  0
 13 14  1  0  0  0  0
 14 15  2  0  0  0  0
 16  9  1  0  0  0  0
 16 15  1  0  0  0  0
 17 16  2  0  0  0  0
 18 17  1  0  0  0  0
 18 13  2  0  0  0  0
 19 20  1  0  0  0  0
 20 13  1  0  0  0  0
 21 22  1  0  0  0  0
 21 23  1  0  0  0  0
 23 32  1  0  0  0  0
 24 25  1  0  0  0  0
 24 23  2  0  0  0  0
 25 26  2  0  0  0  0
 26 27  1  0  0  0  0
 27 28  1  0  0  0  0
 28 33  1  0  0  0  0
 28 29  2  0  0  0  0
 30 29  1  0  0  0  0
 31 30  2  0  0  0  0
 32 27  2  0  0  0  0
 32 31  1  0  0  0  0
 33 35  2  0  0  0  0
 34 36  1  0  0  0  0
 34 33  1  0  0  0  0
 37 34  1  0  0  0  0
M  END
>  <minimizedAffinity>
-5.83191681

$$$$
