
 OpenBabel10152418263D

 37 40  0  0  1  0  0  0  0  0999 V2000
   -0.1540  -11.6990  -25.5480 C   0  0  2  0  0  3  0  0  0  0  0  0
   -0.3890  -10.6270  -26.6180 C   0  0  0  0  0  1  0  0  0  0  0  0
   -1.7340   -9.4960  -22.8320 C   0  0  0  0  0  0  0  0  0  0  0  0
   -1.5110  -10.2640  -21.6880 C   0  0  0  0  0  3  0  0  0  0  0  0
   -0.9800  -11.5480  -21.7980 C   0  0  0  0  0  3  0  0  0  0  0  0
   -0.5870  -12.0390  -23.0440 C   0  0  0  0  0  3  0  0  0  0  0  0
   -0.7270  -11.2520  -24.1980 C   0  0  0  0  0  0  0  0  0  0  0  0
   -1.3660   -9.9980  -24.0850 C   0  0  0  0  0  3  0  0  0  0  0  0
   -1.5520   -7.0020  -22.9780 C   0  0  0  0  0  0  0  0  0  0  0  0
   -1.6480   -6.0100  -22.2610 O   0  0  0  0  0  0  0  0  0  0  0  0
   -2.1860   -8.1770  -22.6510 N   0  0  0  0  0  0  0  0  0  0  0  0
   -2.9990   -8.0530  -22.0590 H   0  0  0  0  0  0  0  0  0  0  0  0
    0.1090   -6.2580  -26.7850 C   0  0  0  0  0  0  0  0  0  0  0  0
   -1.0150   -7.0710  -26.7140 C   0  0  0  0  0  3  0  0  0  0  0  0
   -1.5350   -7.3890  -25.4580 C   0  0  0  0  0  3  0  0  0  0  0  0
   -0.9290   -6.8690  -24.3130 C   0  0  0  0  0  0  0  0  0  0  0  0
    0.1690   -6.0410  -24.4820 C   0  0  0  0  0  3  0  0  0  0  0  0
    0.7120   -5.7440  -25.6900 N   0  0  0  0  0  0  0  0  0  0  0  0
    1.1510   -4.4930  -27.9240 C   0  0  0  0  0  1  0  0  0  0  0  0
    0.6490   -5.8250  -27.9650 O   0  0  0  0  0  0  0  0  0  0  0  0
    1.2740  -11.9840  -25.4560 N   0  0  0  0  0  0  0  0  0  0  0  0
    1.6150  -12.8910  -25.7290 H   0  0  0  0  0  0  0  0  0  0  0  0
    2.1200  -10.8770  -25.4960 C   0  0  0  0  0  0  0  0  0  0  0  0
    1.8500   -9.8900  -24.6240 N   0  0  0  0  0  0  0  0  0  0  0  0
    2.3240   -8.6850  -24.9200 C   0  0  0  0  0  3  0  0  0  0  0  0
    2.9570   -8.3670  -26.0500 N   0  0  0  0  0  0  0  0  0  0  0  0
    3.2780   -9.3710  -26.8860 C   0  0  0  0  0  0  0  0  0  0  0  0
    3.8520   -9.1290  -28.1350 C   0  0  0  0  0  0  0  0  0  0  0  0
    4.3170  -10.1430  -28.9840 C   0  0  0  0  0  3  0  0  0  0  0  0
    4.1540  -11.4660  -28.6080 C   0  0  0  0  0  3  0  0  0  0  0  0
    3.4450  -11.7460  -27.4440 C   0  0  0  0  0  3  0  0  0  0  0  0
    2.9780  -10.7040  -26.5940 C   0  0  0  0  0  0  0  0  0  0  0  0
    3.7020   -7.7840  -28.7160 C   0  0  0  0  0  0  0  0  0  0  0  0
    4.5000   -6.8430  -28.1160 N   0  0  0  0  0  0  0  0  0  0  0  0
    2.9220   -7.5220  -29.6160 O   0  0  0  0  0  0  0  0  0  0  0  0
    4.4530   -5.8880  -28.4390 H   0  0  0  0  0  0  0  0  0  0  0  0
    5.1600   -7.0810  -27.3860 H   0  0  0  0  0  0  0  0  0  0  0  0
  1  2  1  6  0  0  0
  1 21  1  0  0  0  0
  1  7  1  0  0  0  0
  3 11  1  0  0  0  0
  3  4  1  0  0  0  0
  5  4  2  0  0  0  0
  6  5  1  0  0  0  0
  7  8  1  0  0  0  0
  7  6  2  0  0  0  0
  8  3  2  0  0  0  0
  9 11  1  0  0  0  0
  9 10  2  0  0  0  0
 11 12  1  0  0  0  0
 13 14  1  0  0  0  0
 13 18  2  0  0  0  0
 14 15  2  0  0  0  0
 15 16  1  0  0  0  0
 16  9  1  0  0  0  0
 17 16  2  0  0  0  0
 18 17  1  0  0  0  0
 20 19  1  0  0  0  0
 20 13  1  0  0  0  0
 22 21  1  0  0  0  0
 23 21  1  0  0  0  0
 23 24  1  0  0  0  0
 25 24  2  0  0  0  0
 26 25  1  0  0  0  0
 27 32  1  0  0  0  0
 27 26  2  0  0  0  0
 28 27  1  0  0  0  0
 29 30  1  0  0  0  0
 29 28  2  0  0  0  0
 30 31  2  0  0  0  0
 31 32  1  0  0  0  0
 32 23  2  0  0  0  0
 33 28  1  0  0  0  0
 33 34  1  0  0  0  0
 34 37  1  0  0  0  0
 35 33  2  0  0  0  0
 36 34  1  0  0  0  0
M  END
>  <minimizedAffinity>
-8.14098167

$$$$
