
 OpenBabel10152418263D

 37 40  0  0  1  0  0  0  0  0999 V2000
    0.1840   -9.5260  -26.4790 C   0  0  2  0  0  3  0  0  0  0  0  0
   -1.1780   -9.6460  -27.1700 C   0  0  0  0  0  1  0  0  0  0  0  0
   -0.7600  -11.5390  -23.3500 C   0  0  0  0  0  0  0  0  0  0  0  0
    0.4830  -12.0370  -22.9560 C   0  0  0  0  0  3  0  0  0  0  0  0
    1.6040  -11.8460  -23.7630 C   0  0  0  0  0  3  0  0  0  0  0  0
    1.5060  -11.0810  -24.9270 C   0  0  0  0  0  3  0  0  0  0  0  0
    0.2830  -10.5020  -25.3010 C   0  0  0  0  0  0  0  0  0  0  0  0
   -0.8640  -10.7950  -24.5310 C   0  0  0  0  0  3  0  0  0  0  0  0
   -2.1500  -10.9050  -21.3650 C   0  0  0  0  0  0  0  0  0  0  0  0
   -2.6060  -11.4060  -20.3420 O   0  0  0  0  0  0  0  0  0  0  0  0
   -1.8320  -11.6840  -22.4530 N   0  0  0  0  0  0  0  0  0  0  0  0
   -2.3470  -12.5550  -22.4970 H   0  0  0  0  0  0  0  0  0  0  0  0
   -1.8500   -6.7480  -22.0230 C   0  0  0  0  0  0  0  0  0  0  0  0
   -1.4330   -7.2440  -20.7940 C   0  0  0  0  0  3  0  0  0  0  0  0
   -1.5920   -8.6050  -20.5300 C   0  0  0  0  0  3  0  0  0  0  0  0
   -2.1450   -9.4340  -21.5080 C   0  0  0  0  0  0  0  0  0  0  0  0
   -2.5030   -8.8570  -22.7160 C   0  0  0  0  0  3  0  0  0  0  0  0
   -2.3880   -7.5320  -22.9840 N   0  0  0  0  0  0  0  0  0  0  0  0
   -0.3860   -5.1810  -22.9680 C   0  0  0  0  0  1  0  0  0  0  0  0
   -1.6680   -5.4490  -22.4090 O   0  0  0  0  0  0  0  0  0  0  0  0
    0.3860   -8.1470  -26.0490 N   0  0  0  0  0  0  0  0  0  0  0  0
    0.2710   -7.9100  -25.0770 H   0  0  0  0  0  0  0  0  0  0  0  0
    1.2020   -7.3670  -26.8660 C   0  0  0  0  0  0  0  0  0  0  0  0
    0.5950   -6.3750  -27.5410 N   0  0  0  0  0  0  0  0  0  0  0  0
    1.2170   -5.9210  -28.6230 C   0  0  0  0  0  3  0  0  0  0  0  0
    2.3350   -6.4340  -29.1370 N   0  0  0  0  0  0  0  0  0  0  0  0
    2.9690   -7.3830  -28.4230 C   0  0  0  0  0  0  0  0  0  0  0  0
    4.0890   -8.0470  -28.9210 C   0  0  0  0  0  0  0  0  0  0  0  0
    4.8540   -8.9490  -28.1670 C   0  0  0  0  0  3  0  0  0  0  0  0
    4.4600   -9.2550  -26.8750 C   0  0  0  0  0  3  0  0  0  0  0  0
    3.2600   -8.7300  -26.4030 C   0  0  0  0  0  3  0  0  0  0  0  0
    2.4940   -7.8180  -27.1830 C   0  0  0  0  0  0  0  0  0  0  0  0
    4.3130   -8.0320  -30.3770 C   0  0  0  0  0  0  0  0  0  0  0  0
    4.8330   -6.8470  -30.8320 N   0  0  0  0  0  0  0  0  0  0  0  0
    4.0310   -8.9640  -31.1110 O   0  0  0  0  0  0  0  0  0  0  0  0
    5.0050   -6.7390  -31.8210 H   0  0  0  0  0  0  0  0  0  0  0  0
    5.0840   -6.0910  -30.2060 H   0  0  0  0  0  0  0  0  0  0  0  0
  1  2  1  1  0  0  0
  1 21  1  0  0  0  0
  1  7  1  0  0  0  0
  3  4  1  0  0  0  0
  3 11  1  0  0  0  0
  5  4  2  0  0  0  0
  6  5  1  0  0  0  0
  7  6  2  0  0  0  0
  7  8  1  0  0  0  0
  8  3  2  0  0  0  0
  9 10  2  0  0  0  0
 11  9  1  0  0  0  0
 12 11  1  0  0  0  0
 13 14  1  0  0  0  0
 14 15  2  0  0  0  0
 16  9  1  0  0  0  0
 16 15  1  0  0  0  0
 17 16  2  0  0  0  0
 18 17  1  0  0  0  0
 18 13  2  0  0  0  0
 19 20  1  0  0  0  0
 20 13  1  0  0  0  0
 21 22  1  0  0  0  0
 23 21  1  0  0  0  0
 24 23  2  0  0  0  0
 25 24  1  0  0  0  0
 26 25  2  0  0  0  0
 26 27  1  0  0  0  0
 27 32  1  0  0  0  0
 28 27  2  0  0  0  0
 28 29  1  0  0  0  0
 29 30  2  0  0  0  0
 30 31  1  0  0  0  0
 32 23  1  0  0  0  0
 32 31  2  0  0  0  0
 33 28  1  0  0  0  0
 34 33  1  0  0  0  0
 34 37  1  0  0  0  0
 35 33  2  0  0  0  0
 36 34  1  0  0  0  0
M  END
>  <minimizedAffinity>
-7.51559305

$$$$
