
 OpenBabel10152418263D

 37 40  0  0  1  0  0  0  0  0999 V2000
    2.2330  -11.2840  -24.8100 C   0  0  2  0  0  3  0  0  0  0  0  0
    1.9250   -9.9470  -24.1270 C   0  0  0  0  0  1  0  0  0  0  0  0
    4.1190   -9.5320  -27.6570 C   0  0  0  0  0  0  0  0  0  0  0  0
    4.0550  -10.4950  -28.6650 C   0  0  0  0  0  3  0  0  0  0  0  0
    3.5300  -11.7580  -28.3960 C   0  0  0  0  0  3  0  0  0  0  0  0
    2.9880  -12.0390  -27.1420 C   0  0  0  0  0  3  0  0  0  0  0  0
    2.9680  -11.0590  -26.1360 C   0  0  0  0  0  0  0  0  0  0  0  0
    3.6000   -9.8220  -26.3900 C   0  0  0  0  0  3  0  0  0  0  0  0
    3.8660   -7.2190  -28.5830 C   0  0  0  0  0  0  0  0  0  0  0  0
    4.3880   -6.4770  -29.4110 O   0  0  0  0  0  0  0  0  0  0  0  0
    4.5730   -8.2490  -28.0110 N   0  0  0  0  0  0  0  0  0  0  0  0
    5.5750   -8.1050  -28.0050 H   0  0  0  0  0  0  0  0  0  0  0  0
    0.1990   -5.8590  -27.0010 C   0  0  0  0  0  0  0  0  0  0  0  0
    0.9980   -6.6580  -26.1940 C   0  0  0  0  0  3  0  0  0  0  0  0
    2.1790   -7.1790  -26.7250 C   0  0  0  0  0  3  0  0  0  0  0  0
    2.5370   -6.8680  -28.0380 C   0  0  0  0  0  0  0  0  0  0  0  0
    1.6940   -6.0370  -28.7580 C   0  0  0  0  0  3  0  0  0  0  0  0
    0.5250   -5.5460  -28.2750 N   0  0  0  0  0  0  0  0  0  0  0  0
   -0.7890   -3.8380  -26.3400 C   0  0  0  0  0  1  0  0  0  0  0  0
   -0.9350   -5.2390  -26.5540 O   0  0  0  0  0  0  0  0  0  0  0  0
    0.9910  -12.0230  -25.0050 N   0  0  0  0  0  0  0  0  0  0  0  0
    0.9550  -13.0000  -24.7630 H   0  0  0  0  0  0  0  0  0  0  0  0
   -0.1760  -11.2620  -25.0190 C   0  0  0  0  0  0  0  0  0  0  0  0
   -0.3990  -10.5340  -26.1270 N   0  0  0  0  0  0  0  0  0  0  0  0
   -1.2200   -9.4970  -26.0050 C   0  0  0  0  0  3  0  0  0  0  0  0
   -1.7560   -9.0740  -24.8600 N   0  0  0  0  0  0  0  0  0  0  0  0
   -1.5790   -9.8430  -23.7700 C   0  0  0  0  0  0  0  0  0  0  0  0
   -2.0170   -9.4370  -22.5090 C   0  0  0  0  0  0  0  0  0  0  0  0
   -1.9680  -10.2550  -21.3710 C   0  0  0  0  0  3  0  0  0  0  0  0
   -1.4050  -11.5160  -21.4690 C   0  0  0  0  0  3  0  0  0  0  0  0
   -0.8170  -11.8910  -22.6740 C   0  0  0  0  0  3  0  0  0  0  0  0
   -0.8730  -11.0470  -23.8190 C   0  0  0  0  0  0  0  0  0  0  0  0
   -2.2700   -8.0020  -22.2930 C   0  0  0  0  0  0  0  0  0  0  0  0
   -3.5430   -7.6190  -22.6320 N   0  0  0  0  0  0  0  0  0  0  0  0
   -1.4230   -7.2220  -21.8890 O   0  0  0  0  0  0  0  0  0  0  0  0
   -3.8020   -6.6490  -22.5320 H   0  0  0  0  0  0  0  0  0  0  0  0
   -4.2420   -8.2830  -22.9440 H   0  0  0  0  0  0  0  0  0  0  0  0
  1  2  1  6  0  0  0
  3  8  1  0  0  0  0
  4  5  1  0  0  0  0
  4  3  2  0  0  0  0
  5  6  2  0  0  0  0
  6  7  1  0  0  0  0
  7  1  1  0  0  0  0
  8  7  2  0  0  0  0
  9 16  1  0  0  0  0
  9 11  1  0  0  0  0
 10  9  2  0  0  0  0
 11 12  1  0  0  0  0
 11  3  1  0  0  0  0
 13 20  1  0  0  0  0
 13 14  1  0  0  0  0
 15 14  2  0  0  0  0
 16 15  1  0  0  0  0
 17 18  1  0  0  0  0
 17 16  2  0  0  0  0
 18 13  2  0  0  0  0
 20 19  1  0  0  0  0
 21  1  1  0  0  0  0
 21 22  1  0  0  0  0
 23 21  1  0  0  0  0
 23 32  1  0  0  0  0
 24 25  1  0  0  0  0
 24 23  2  0  0  0  0
 25 26  2  0  0  0  0
 26 27  1  0  0  0  0
 27 28  1  0  0  0  0
 28 33  1  0  0  0  0
 28 29  2  0  0  0  0
 30 29  1  0  0  0  0
 31 30  2  0  0  0  0
 32 27  2  0  0  0  0
 32 31  1  0  0  0  0
 33 35  2  0  0  0  0
 34 36  1  0  0  0  0
 34 33  1  0  0  0  0
 37 34  1  0  0  0  0
M  END
>  <minimizedAffinity>
-8.19541264

$$$$
