
 OpenBabel10152418443D

 38 42  0  0  0  0  0  0  0  0999 V2000
    1.1490  -11.3180  -24.3060 C   0  0  0  0  0  0  0  0  0  0  0  0
    0.4460  -12.0390  -25.2830 C   0  0  0  0  0  3  0  0  0  0  0  0
   -0.9380  -11.9460  -25.3740 C   0  0  0  0  0  3  0  0  0  0  0  0
   -1.6470  -11.1290  -24.4910 C   0  0  0  0  0  3  0  0  0  0  0  0
   -0.9840  -10.4120  -23.4950 C   0  0  0  0  0  0  0  0  0  0  0  0
    0.4180  -10.5050  -23.4220 C   0  0  0  0  0  3  0  0  0  0  0  0
   -1.6050   -9.5550  -22.5650 N   0  0  0  0  0  0  0  0  0  0  0  0
   -1.6510   -8.1880  -22.4210 C   0  0  0  0  0  0  0  0  0  0  0  0
   -2.1210   -7.6960  -21.3960 O   0  0  0  0  0  0  0  0  0  0  0  0
   -2.1010  -10.0070  -21.8070 H   0  0  0  0  0  0  0  0  0  0  0  0
   -1.1980   -7.2790  -23.4830 C   0  0  0  0  0  0  0  0  0  0  0  0
   -0.7760   -5.9960  -23.1300 C   0  0  0  0  0  3  0  0  0  0  0  0
   -0.3000   -5.1200  -24.1120 C   0  0  0  0  0  3  0  0  0  0  0  0
   -0.2740   -5.5380  -25.4580 C   0  0  0  0  0  0  0  0  0  0  0  0
    0.1500   -4.9300  -26.6720 C   0  0  0  0  0  3  0  0  0  0  0  0
   -0.0750   -5.8250  -27.6920 C   0  0  0  0  0  3  0  0  0  0  0  0
   -0.6230   -6.9550  -27.1450 N   0  0  0  0  0  0  0  0  0  0  0  0
   -0.7440   -6.8130  -25.7810 C   0  0  0  0  0  0  0  0  0  0  0  0
   -1.2240   -7.7100  -24.8180 C   0  0  0  0  0  3  0  0  0  0  0  0
   -0.8960   -7.7800  -27.6630 H   0  0  0  0  0  0  0  0  0  0  0  0
    2.6580  -11.4670  -24.2740 C   0  0  0  0  0  2  0  0  0  0  0  0
    4.2730   -9.2560  -29.7360 C   0  0  0  0  0  0  0  0  0  0  0  0
    4.8600  -10.3940  -30.3080 C   0  0  0  0  0  3  0  0  0  0  0  0
    4.9090  -11.5740  -29.5840 C   0  0  0  0  0  3  0  0  0  0  0  0
    4.3820  -11.5990  -28.2950 C   0  0  0  0  0  3  0  0  0  0  0  0
    3.7980  -10.4430  -27.7060 C   0  0  0  0  0  0  0  0  0  0  0  0
    3.2610  -10.3970  -26.4010 C   0  0  0  0  0  0  0  0  0  0  0  0
    3.2540  -11.5400  -25.5990 N   0  0  0  0  0  0  0  0  0  0  0  0
    2.6880   -9.2850  -25.9130 N   0  0  0  0  0  0  0  0  0  0  0  0
    2.6540   -8.2160  -26.7090 C   0  0  0  0  0  3  0  0  0  0  0  0
    3.1410   -8.1480  -27.9470 N   0  0  0  0  0  0  0  0  0  0  0  0
    3.7300   -9.2480  -28.4460 C   0  0  0  0  0  0  0  0  0  0  0  0
    4.0950  -12.0960  -25.6460 H   0  0  0  0  0  0  0  0  0  0  0  0
    4.8350   -6.9270  -29.9550 N   0  0  0  0  0  0  0  0  0  0  0  0
    4.2640   -8.0210  -30.5450 C   0  0  0  0  0  0  0  0  0  0  0  0
    3.7320   -7.9630  -31.6430 O   0  0  0  0  0  0  0  0  0  0  0  0
    4.8470   -6.0650  -30.4860 H   0  0  0  0  0  0  0  0  0  0  0  0
    5.3030   -6.9580  -29.0610 H   0  0  0  0  0  0  0  0  0  0  0  0
  1 21  1  0  0  0  0
  1  6  1  0  0  0  0
  2  1  2  0  0  0  0
  3  2  1  0  0  0  0
  3  4  2  0  0  0  0
  4  5  1  0  0  0  0
  5  6  2  0  0  0  0
  5  7  1  0  0  0  0
  7  8  1  0  0  0  0
  7 10  1  0  0  0  0
  8  9  2  0  0  0  0
 11 12  1  0  0  0  0
 11  8  1  0  0  0  0
 13 12  2  0  0  0  0
 14 13  1  0  0  0  0
 15 14  1  0  0  0  0
 16 17  1  0  0  0  0
 16 15  2  0  0  0  0
 17 18  1  0  0  0  0
 18 14  2  0  0  0  0
 18 19  1  0  0  0  0
 19 11  2  0  0  0  0
 20 17  1  0  0  0  0
 22 32  1  0  0  0  0
 23 22  2  0  0  0  0
 23 24  1  0  0  0  0
 24 25  2  0  0  0  0
 25 26  1  0  0  0  0
 26 27  1  0  0  0  0
 27 29  2  0  0  0  0
 27 28  1  0  0  0  0
 28 21  1  0  0  0  0
 30 29  1  0  0  0  0
 31 30  2  0  0  0  0
 32 31  1  0  0  0  0
 32 26  2  0  0  0  0
 33 28  1  0  0  0  0
 34 38  1  0  0  0  0
 35 34  1  0  0  0  0
 35 22  1  0  0  0  0
 36 35  2  0  0  0  0
 37 34  1  0  0  0  0
M  END
>  <minimizedAffinity>
-9.51606369

$$$$
