
 OpenBabel10152418443D

 38 42  0  0  0  0  0  0  0  0999 V2000
    2.3310  -11.4850  -26.8890 C   0  0  0  0  0  0  0  0  0  0  0  0
    3.2890  -11.9760  -25.9910 C   0  0  0  0  0  3  0  0  0  0  0  0
    4.5990  -11.5090  -26.0250 C   0  0  0  0  0  3  0  0  0  0  0  0
    4.9740  -10.5390  -26.9560 C   0  0  0  0  0  3  0  0  0  0  0  0
    4.0540  -10.0410  -27.8770 C   0  0  0  0  0  0  0  0  0  0  0  0
    2.7300  -10.5130  -27.8240 C   0  0  0  0  0  3  0  0  0  0  0  0
    4.3300   -9.0560  -28.8470 N   0  0  0  0  0  0  0  0  0  0  0  0
    3.7460   -7.8530  -29.1690 C   0  0  0  0  0  0  0  0  0  0  0  0
    4.0790   -7.2680  -30.1990 O   0  0  0  0  0  0  0  0  0  0  0  0
    5.0910   -9.2610  -29.4830 H   0  0  0  0  0  0  0  0  0  0  0  0
    2.7600   -7.2090  -28.2910 C   0  0  0  0  0  0  0  0  0  0  0  0
    1.8890   -6.2680  -28.8420 C   0  0  0  0  0  3  0  0  0  0  0  0
    0.9110   -5.6650  -28.0420 C   0  0  0  0  0  3  0  0  0  0  0  0
    0.8310   -6.0030  -26.6760 C   0  0  0  0  0  0  0  0  0  0  0  0
   -0.0250   -5.6070  -25.6110 C   0  0  0  0  0  3  0  0  0  0  0  0
    0.3830   -6.2690  -24.4750 C   0  0  0  0  0  3  0  0  0  0  0  0
    1.4590   -7.0490  -24.8080 N   0  0  0  0  0  0  0  0  0  0  0  0
    1.7460   -6.9170  -26.1480 C   0  0  0  0  0  0  0  0  0  0  0  0
    2.7330   -7.5340  -26.9260 C   0  0  0  0  0  3  0  0  0  0  0  0
    1.9680   -7.6430  -24.1680 H   0  0  0  0  0  0  0  0  0  0  0  0
    0.9230  -12.0390  -26.7860 C   0  0  0  0  0  2  0  0  0  0  0  0
   -2.2620   -9.3550  -22.3160 C   0  0  0  0  0  0  0  0  0  0  0  0
   -2.0820  -10.2840  -21.2820 C   0  0  0  0  0  3  0  0  0  0  0  0
   -1.3220  -11.4190  -21.5090 C   0  0  0  0  0  3  0  0  0  0  0  0
   -0.7600  -11.6170  -22.7680 C   0  0  0  0  0  3  0  0  0  0  0  0
   -0.9530  -10.6830  -23.8240 C   0  0  0  0  0  0  0  0  0  0  0  0
   -0.4260  -10.8310  -25.1260 C   0  0  0  0  0  0  0  0  0  0  0  0
    0.3650  -11.9370  -25.4470 N   0  0  0  0  0  0  0  0  0  0  0  0
   -0.6100   -9.8970  -26.0710 N   0  0  0  0  0  0  0  0  0  0  0  0
   -1.3210   -8.8200  -25.7360 C   0  0  0  0  0  3  0  0  0  0  0  0
   -1.8720   -8.5880  -24.5460 N   0  0  0  0  0  0  0  0  0  0  0  0
   -1.7090   -9.5200  -23.5920 C   0  0  0  0  0  0  0  0  0  0  0  0
    0.0430  -12.8140  -25.0630 H   0  0  0  0  0  0  0  0  0  0  0  0
   -2.5580   -7.2690  -21.1520 N   0  0  0  0  0  0  0  0  0  0  0  0
   -3.0970   -8.1720  -22.0260 C   0  0  0  0  0  0  0  0  0  0  0  0
   -4.2190   -8.0360  -22.4890 O   0  0  0  0  0  0  0  0  0  0  0  0
   -3.1060   -6.4470  -20.9350 H   0  0  0  0  0  0  0  0  0  0  0  0
   -1.6240   -7.3480  -20.7780 H   0  0  0  0  0  0  0  0  0  0  0  0
  1 21  1  0  0  0  0
  1  2  1  0  0  0  0
  3  2  2  0  0  0  0
  4  3  1  0  0  0  0
  5  6  1  0  0  0  0
  5  4  2  0  0  0  0
  6  1  2  0  0  0  0
  7  5  1  0  0  0  0
  8  7  1  0  0  0  0
  8 11  1  0  0  0  0
  9  8  2  0  0  0  0
 10  7  1  0  0  0  0
 11 19  1  0  0  0  0
 12 11  2  0  0  0  0
 12 13  1  0  0  0  0
 13 14  2  0  0  0  0
 14 18  1  0  0  0  0
 14 15  1  0  0  0  0
 15 16  2  0  0  0  0
 17 16  1  0  0  0  0
 17 20  1  0  0  0  0
 18 17  1  0  0  0  0
 19 18  2  0  0  0  0
 21 28  1  0  0  0  0
 22 35  1  0  0  0  0
 22 23  1  0  0  0  0
 24 23  2  0  0  0  0
 25 24  1  0  0  0  0
 26 32  1  0  0  0  0
 26 25  2  0  0  0  0
 27 26  1  0  0  0  0
 28 27  1  0  0  0  0
 28 33  1  0  0  0  0
 29 30  1  0  0  0  0
 29 27  2  0  0  0  0
 30 31  2  0  0  0  0
 31 32  1  0  0  0  0
 32 22  2  0  0  0  0
 34 37  1  0  0  0  0
 34 38  1  0  0  0  0
 35 34  1  0  0  0  0
 36 35  2  0  0  0  0
M  END
>  <minimizedAffinity>
-9.19046593

$$$$
