
 OpenBabel10152418443D

 38 42  0  0  0  0  0  0  0  0999 V2000
   -0.1490   -6.3990  -27.2270 C   0  0  0  0  0  0  0  0  0  0  0  0
   -0.3520   -5.0240  -27.0430 C   0  0  0  0  0  3  0  0  0  0  0  0
    0.5910   -4.1020  -27.4840 C   0  0  0  0  0  3  0  0  0  0  0  0
    1.7540   -4.5380  -28.1200 C   0  0  0  0  0  3  0  0  0  0  0  0
    1.9990   -5.8980  -28.3040 C   0  0  0  0  0  0  0  0  0  0  0  0
    1.0310   -6.8190  -27.8640 C   0  0  0  0  0  3  0  0  0  0  0  0
    3.1340   -6.4380  -28.9420 N   0  0  0  0  0  0  0  0  0  0  0  0
    3.9130   -7.5480  -28.7100 C   0  0  0  0  0  0  0  0  0  0  0  0
    4.9740   -7.6880  -29.3170 O   0  0  0  0  0  0  0  0  0  0  0  0
    3.5050   -5.9020  -29.7170 H   0  0  0  0  0  0  0  0  0  0  0  0
    3.4950   -8.6110  -27.7860 C   0  0  0  0  0  0  0  0  0  0  0  0
    3.7140   -9.9400  -28.1540 C   0  0  0  0  0  3  0  0  0  0  0  0
    3.3640  -10.9750  -27.2790 C   0  0  0  0  0  3  0  0  0  0  0  0
    2.7730  -10.6620  -26.0390 C   0  0  0  0  0  0  0  0  0  0  0  0
    2.3240  -11.4400  -24.9360 C   0  0  0  0  0  3  0  0  0  0  0  0
    1.8180  -10.5780  -23.9910 C   0  0  0  0  0  3  0  0  0  0  0  0
    1.9380   -9.3030  -24.4780 N   0  0  0  0  0  0  0  0  0  0  0  0
    2.5300   -9.3240  -25.7210 C   0  0  0  0  0  0  0  0  0  0  0  0
    2.8700   -8.2690  -26.5770 C   0  0  0  0  0  3  0  0  0  0  0  0
    1.6420   -8.4650  -23.9970 H   0  0  0  0  0  0  0  0  0  0  0  0
   -1.2260   -7.3410  -26.7240 C   0  0  0  0  0  2  0  0  0  0  0  0
   -1.8480   -9.9300  -21.2250 C   0  0  0  0  0  0  0  0  0  0  0  0
   -1.9060   -8.7900  -20.4110 C   0  0  0  0  0  3  0  0  0  0  0  0
   -1.8250   -7.5340  -20.9900 C   0  0  0  0  0  3  0  0  0  0  0  0
   -1.6770   -7.4340  -22.3710 C   0  0  0  0  0  3  0  0  0  0  0  0
   -1.6030   -8.5890  -23.1980 C   0  0  0  0  0  0  0  0  0  0  0  0
   -1.4370   -8.5580  -24.6000 C   0  0  0  0  0  0  0  0  0  0  0  0
   -1.3590   -7.3370  -25.2750 N   0  0  0  0  0  0  0  0  0  0  0  0
   -1.4130   -9.6820  -25.3330 N   0  0  0  0  0  0  0  0  0  0  0  0
   -1.5430  -10.8380  -24.6810 C   0  0  0  0  0  3  0  0  0  0  0  0
   -1.6910  -10.9810  -23.3650 N   0  0  0  0  0  0  0  0  0  0  0  0
   -1.7030   -9.8650  -22.6160 C   0  0  0  0  0  0  0  0  0  0  0  0
   -0.8090   -6.6300  -24.8090 H   0  0  0  0  0  0  0  0  0  0  0  0
   -0.7950  -12.0160  -20.6480 N   0  0  0  0  0  0  0  0  0  0  0  0
   -1.9190  -11.2440  -20.5540 C   0  0  0  0  0  0  0  0  0  0  0  0
   -2.9340  -11.6400  -20.0010 O   0  0  0  0  0  0  0  0  0  0  0  0
   -0.8130  -12.9210  -20.1960 H   0  0  0  0  0  0  0  0  0  0  0  0
    0.0630  -11.6990  -21.0770 H   0  0  0  0  0  0  0  0  0  0  0  0
  1  2  1  0  0  0  0
  1 21  1  0  0  0  0
  3  2  2  0  0  0  0
  4  3  1  0  0  0  0
  5  4  2  0  0  0  0
  5  6  1  0  0  0  0
  6  1  2  0  0  0  0
  7  8  1  0  0  0  0
  7  5  1  0  0  0  0
  8 11  1  0  0  0  0
  9  8  2  0  0  0  0
 10  7  1  0  0  0  0
 11 19  1  0  0  0  0
 12 11  2  0  0  0  0
 12 13  1  0  0  0  0
 13 14  2  0  0  0  0
 14 18  1  0  0  0  0
 14 15  1  0  0  0  0
 15 16  2  0  0  0  0
 17 20  1  0  0  0  0
 17 16  1  0  0  0  0
 18 17  1  0  0  0  0
 19 18  2  0  0  0  0
 21 28  1  0  0  0  0
 22 35  1  0  0  0  0
 22 23  1  0  0  0  0
 24 23  2  0  0  0  0
 25 24  1  0  0  0  0
 26 32  1  0  0  0  0
 26 25  2  0  0  0  0
 27 26  1  0  0  0  0
 28 33  1  0  0  0  0
 28 27  1  0  0  0  0
 29 30  1  0  0  0  0
 29 27  2  0  0  0  0
 30 31  2  0  0  0  0
 31 32  1  0  0  0  0
 32 22  2  0  0  0  0
 34 35  1  0  0  0  0
 34 37  1  0  0  0  0
 35 36  2  0  0  0  0
 38 34  1  0  0  0  0
M  END
>  <minimizedAffinity>
-10.0980549

$$$$

 OpenBabel10152418443D

 38 42  0  0  0  0  0  0  0  0999 V2000
   -0.2760   -5.2900  -26.9380 C   0  0  0  0  0  0  0  0  0  0  0  0
   -0.1230   -3.9020  -27.0640 C   0  0  0  0  0  3  0  0  0  0  0  0
    0.8790   -3.3690  -27.8670 C   0  0  0  0  0  3  0  0  0  0  0  0
    1.7460   -4.2140  -28.5620 C   0  0  0  0  0  3  0  0  0  0  0  0
    1.6360   -5.5990  -28.4460 C   0  0  0  0  0  0  0  0  0  0  0  0
    0.6100   -6.1250  -27.6410 C   0  0  0  0  0  3  0  0  0  0  0  0
    2.4530   -6.5350  -29.1120 N   0  0  0  0  0  0  0  0  0  0  0  0
    3.1180   -7.6690  -28.7080 C   0  0  0  0  0  0  0  0  0  0  0  0
    3.9250   -8.2080  -29.4650 O   0  0  0  0  0  0  0  0  0  0  0  0
    2.6410   -6.3440  -30.0890 H   0  0  0  0  0  0  0  0  0  0  0  0
    2.8630   -8.2970  -27.4040 C   0  0  0  0  0  0  0  0  0  0  0  0
    2.6370   -7.4750  -26.2990 C   0  0  0  0  0  3  0  0  0  0  0  0
    2.3510   -8.0420  -25.0510 C   0  0  0  0  0  3  0  0  0  0  0  0
    2.3150   -9.4440  -24.9220 C   0  0  0  0  0  0  0  0  0  0  0  0
    2.0460  -10.3280  -23.8390 C   0  0  0  0  0  3  0  0  0  0  0  0
    2.1670  -11.6160  -24.3080 C   0  0  0  0  0  3  0  0  0  0  0  0
    2.5030  -11.5500  -25.6340 N   0  0  0  0  0  0  0  0  0  0  0  0
    2.5870  -10.2370  -26.0390 C   0  0  0  0  0  0  0  0  0  0  0  0
    2.8750   -9.6960  -27.2980 C   0  0  0  0  0  3  0  0  0  0  0  0
    2.6620  -12.3480  -26.2350 H   0  0  0  0  0  0  0  0  0  0  0  0
   -1.3960   -5.7950  -26.0480 C   0  0  0  0  0  2  0  0  0  0  0  0
   -1.3910  -10.8660  -22.6390 C   0  0  0  0  0  0  0  0  0  0  0  0
   -1.2500  -11.8430  -23.6360 C   0  0  0  0  0  3  0  0  0  0  0  0
   -1.1540  -11.4560  -24.9620 C   0  0  0  0  0  3  0  0  0  0  0  0
   -1.2100  -10.1000  -25.2770 C   0  0  0  0  0  3  0  0  0  0  0  0
   -1.3670   -9.1070  -24.2700 C   0  0  0  0  0  0  0  0  0  0  0  0
   -1.4480   -7.7210  -24.5230 C   0  0  0  0  0  0  0  0  0  0  0  0
   -1.3480   -7.2330  -25.8280 N   0  0  0  0  0  0  0  0  0  0  0  0
   -1.5580   -6.8270  -23.5270 N   0  0  0  0  0  0  0  0  0  0  0  0
   -1.5980   -7.3030  -22.2820 C   0  0  0  0  0  3  0  0  0  0  0  0
   -1.5430   -8.5880  -21.9350 N   0  0  0  0  0  0  0  0  0  0  0  0
   -1.4470   -9.4950  -22.9210 C   0  0  0  0  0  0  0  0  0  0  0  0
   -1.8390   -7.7760  -26.5230 H   0  0  0  0  0  0  0  0  0  0  0  0
   -2.6010  -10.8800  -20.5590 N   0  0  0  0  0  0  0  0  0  0  0  0
   -1.5080  -11.3350  -21.2440 C   0  0  0  0  0  0  0  0  0  0  0  0
   -0.6570  -12.0350  -20.7170 O   0  0  0  0  0  0  0  0  0  0  0  0
   -2.7100  -11.1870  -19.6010 H   0  0  0  0  0  0  0  0  0  0  0  0
   -3.3290  -10.3230  -20.9820 H   0  0  0  0  0  0  0  0  0  0  0  0
  1 21  1  0  0  0  0
  2  1  1  0  0  0  0
  3  2  2  0  0  0  0
  4  5  2  0  0  0  0
  4  3  1  0  0  0  0
  5  6  1  0  0  0  0
  6  1  2  0  0  0  0
  7  8  1  0  0  0  0
  7  5  1  0  0  0  0
  8 11  1  0  0  0  0
  9  8  2  0  0  0  0
 10  7  1  0  0  0  0
 11 19  2  0  0  0  0
 11 12  1  0  0  0  0
 12 13  2  0  0  0  0
 13 14  1  0  0  0  0
 14 15  1  0  0  0  0
 16 15  2  0  0  0  0
 17 16  1  0  0  0  0
 18 17  1  0  0  0  0
 18 14  2  0  0  0  0
 19 18  1  0  0  0  0
 20 17  1  0  0  0  0
 21 28  1  0  0  0  0
 22 35  1  0  0  0  0
 23 22  2  0  0  0  0
 24 23  1  0  0  0  0
 25 24  2  0  0  0  0
 25 26  1  0  0  0  0
 26 32  1  0  0  0  0
 27 26  2  0  0  0  0
 27 29  1  0  0  0  0
 28 27  1  0  0  0  0
 29 30  2  0  0  0  0
 30 31  1  0  0  0  0
 32 22  1  0  0  0  0
 32 31  2  0  0  0  0
 33 28  1  0  0  0  0
 34 37  1  0  0  0  0
 35 36  2  0  0  0  0
 35 34  1  0  0  0  0
 38 34  1  0  0  0  0
M  END
>  <minimizedAffinity>
-9.71603394

$$$$

 OpenBabel10152418443D

 38 42  0  0  0  0  0  0  0  0999 V2000
    1.1490  -11.3180  -24.3060 C   0  0  0  0  0  0  0  0  0  0  0  0
    0.4460  -12.0390  -25.2830 C   0  0  0  0  0  3  0  0  0  0  0  0
   -0.9380  -11.9460  -25.3740 C   0  0  0  0  0  3  0  0  0  0  0  0
   -1.6470  -11.1290  -24.4910 C   0  0  0  0  0  3  0  0  0  0  0  0
   -0.9840  -10.4120  -23.4950 C   0  0  0  0  0  0  0  0  0  0  0  0
    0.4180  -10.5050  -23.4220 C   0  0  0  0  0  3  0  0  0  0  0  0
   -1.6050   -9.5550  -22.5650 N   0  0  0  0  0  0  0  0  0  0  0  0
   -1.6510   -8.1880  -22.4210 C   0  0  0  0  0  0  0  0  0  0  0  0
   -2.1210   -7.6960  -21.3960 O   0  0  0  0  0  0  0  0  0  0  0  0
   -2.1010  -10.0070  -21.8070 H   0  0  0  0  0  0  0  0  0  0  0  0
   -1.1980   -7.2790  -23.4830 C   0  0  0  0  0  0  0  0  0  0  0  0
   -0.7760   -5.9960  -23.1300 C   0  0  0  0  0  3  0  0  0  0  0  0
   -0.3000   -5.1200  -24.1120 C   0  0  0  0  0  3  0  0  0  0  0  0
   -0.2740   -5.5380  -25.4580 C   0  0  0  0  0  0  0  0  0  0  0  0
    0.1500   -4.9300  -26.6720 C   0  0  0  0  0  3  0  0  0  0  0  0
   -0.0750   -5.8250  -27.6920 C   0  0  0  0  0  3  0  0  0  0  0  0
   -0.6230   -6.9550  -27.1450 N   0  0  0  0  0  0  0  0  0  0  0  0
   -0.7440   -6.8130  -25.7810 C   0  0  0  0  0  0  0  0  0  0  0  0
   -1.2240   -7.7100  -24.8180 C   0  0  0  0  0  3  0  0  0  0  0  0
   -0.8960   -7.7800  -27.6630 H   0  0  0  0  0  0  0  0  0  0  0  0
    2.6580  -11.4670  -24.2740 C   0  0  0  0  0  2  0  0  0  0  0  0
    4.2730   -9.2560  -29.7360 C   0  0  0  0  0  0  0  0  0  0  0  0
    4.8600  -10.3940  -30.3080 C   0  0  0  0  0  3  0  0  0  0  0  0
    4.9090  -11.5740  -29.5840 C   0  0  0  0  0  3  0  0  0  0  0  0
    4.3820  -11.5990  -28.2950 C   0  0  0  0  0  3  0  0  0  0  0  0
    3.7980  -10.4430  -27.7060 C   0  0  0  0  0  0  0  0  0  0  0  0
    3.2610  -10.3970  -26.4010 C   0  0  0  0  0  0  0  0  0  0  0  0
    3.2540  -11.5400  -25.5990 N   0  0  0  0  0  0  0  0  0  0  0  0
    2.6880   -9.2850  -25.9130 N   0  0  0  0  0  0  0  0  0  0  0  0
    2.6540   -8.2160  -26.7090 C   0  0  0  0  0  3  0  0  0  0  0  0
    3.1410   -8.1480  -27.9470 N   0  0  0  0  0  0  0  0  0  0  0  0
    3.7300   -9.2480  -28.4460 C   0  0  0  0  0  0  0  0  0  0  0  0
    4.0950  -12.0960  -25.6460 H   0  0  0  0  0  0  0  0  0  0  0  0
    4.8350   -6.9270  -29.9550 N   0  0  0  0  0  0  0  0  0  0  0  0
    4.2640   -8.0210  -30.5450 C   0  0  0  0  0  0  0  0  0  0  0  0
    3.7320   -7.9630  -31.6430 O   0  0  0  0  0  0  0  0  0  0  0  0
    4.8470   -6.0650  -30.4860 H   0  0  0  0  0  0  0  0  0  0  0  0
    5.3030   -6.9580  -29.0610 H   0  0  0  0  0  0  0  0  0  0  0  0
  1 21  1  0  0  0  0
  1  6  1  0  0  0  0
  2  1  2  0  0  0  0
  3  2  1  0  0  0  0
  3  4  2  0  0  0  0
  4  5  1  0  0  0  0
  5  6  2  0  0  0  0
  5  7  1  0  0  0  0
  7  8  1  0  0  0  0
  7 10  1  0  0  0  0
  8  9  2  0  0  0  0
 11 12  1  0  0  0  0
 11  8  1  0  0  0  0
 13 12  2  0  0  0  0
 14 13  1  0  0  0  0
 15 14  1  0  0  0  0
 16 17  1  0  0  0  0
 16 15  2  0  0  0  0
 17 18  1  0  0  0  0
 18 14  2  0  0  0  0
 18 19  1  0  0  0  0
 19 11  2  0  0  0  0
 20 17  1  0  0  0  0
 22 32  1  0  0  0  0
 23 22  2  0  0  0  0
 23 24  1  0  0  0  0
 24 25  2  0  0  0  0
 25 26  1  0  0  0  0
 26 27  1  0  0  0  0
 27 29  2  0  0  0  0
 27 28  1  0  0  0  0
 28 21  1  0  0  0  0
 30 29  1  0  0  0  0
 31 30  2  0  0  0  0
 32 31  1  0  0  0  0
 32 26  2  0  0  0  0
 33 28  1  0  0  0  0
 34 38  1  0  0  0  0
 35 34  1  0  0  0  0
 35 22  1  0  0  0  0
 36 35  2  0  0  0  0
 37 34  1  0  0  0  0
M  END
>  <minimizedAffinity>
-9.51606369

$$$$

 OpenBabel10152418443D

 38 42  0  0  0  0  0  0  0  0999 V2000
    2.3310  -11.4850  -26.8890 C   0  0  0  0  0  0  0  0  0  0  0  0
    3.2890  -11.9760  -25.9910 C   0  0  0  0  0  3  0  0  0  0  0  0
    4.5990  -11.5090  -26.0250 C   0  0  0  0  0  3  0  0  0  0  0  0
    4.9740  -10.5390  -26.9560 C   0  0  0  0  0  3  0  0  0  0  0  0
    4.0540  -10.0410  -27.8770 C   0  0  0  0  0  0  0  0  0  0  0  0
    2.7300  -10.5130  -27.8240 C   0  0  0  0  0  3  0  0  0  0  0  0
    4.3300   -9.0560  -28.8470 N   0  0  0  0  0  0  0  0  0  0  0  0
    3.7460   -7.8530  -29.1690 C   0  0  0  0  0  0  0  0  0  0  0  0
    4.0790   -7.2680  -30.1990 O   0  0  0  0  0  0  0  0  0  0  0  0
    5.0910   -9.2610  -29.4830 H   0  0  0  0  0  0  0  0  0  0  0  0
    2.7600   -7.2090  -28.2910 C   0  0  0  0  0  0  0  0  0  0  0  0
    1.8890   -6.2680  -28.8420 C   0  0  0  0  0  3  0  0  0  0  0  0
    0.9110   -5.6650  -28.0420 C   0  0  0  0  0  3  0  0  0  0  0  0
    0.8310   -6.0030  -26.6760 C   0  0  0  0  0  0  0  0  0  0  0  0
   -0.0250   -5.6070  -25.6110 C   0  0  0  0  0  3  0  0  0  0  0  0
    0.3830   -6.2690  -24.4750 C   0  0  0  0  0  3  0  0  0  0  0  0
    1.4590   -7.0490  -24.8080 N   0  0  0  0  0  0  0  0  0  0  0  0
    1.7460   -6.9170  -26.1480 C   0  0  0  0  0  0  0  0  0  0  0  0
    2.7330   -7.5340  -26.9260 C   0  0  0  0  0  3  0  0  0  0  0  0
    1.9680   -7.6430  -24.1680 H   0  0  0  0  0  0  0  0  0  0  0  0
    0.9230  -12.0390  -26.7860 C   0  0  0  0  0  2  0  0  0  0  0  0
   -2.2620   -9.3550  -22.3160 C   0  0  0  0  0  0  0  0  0  0  0  0
   -2.0820  -10.2840  -21.2820 C   0  0  0  0  0  3  0  0  0  0  0  0
   -1.3220  -11.4190  -21.5090 C   0  0  0  0  0  3  0  0  0  0  0  0
   -0.7600  -11.6170  -22.7680 C   0  0  0  0  0  3  0  0  0  0  0  0
   -0.9530  -10.6830  -23.8240 C   0  0  0  0  0  0  0  0  0  0  0  0
   -0.4260  -10.8310  -25.1260 C   0  0  0  0  0  0  0  0  0  0  0  0
    0.3650  -11.9370  -25.4470 N   0  0  0  0  0  0  0  0  0  0  0  0
   -0.6100   -9.8970  -26.0710 N   0  0  0  0  0  0  0  0  0  0  0  0
   -1.3210   -8.8200  -25.7360 C   0  0  0  0  0  3  0  0  0  0  0  0
   -1.8720   -8.5880  -24.5460 N   0  0  0  0  0  0  0  0  0  0  0  0
   -1.7090   -9.5200  -23.5920 C   0  0  0  0  0  0  0  0  0  0  0  0
    0.0430  -12.8140  -25.0630 H   0  0  0  0  0  0  0  0  0  0  0  0
   -2.5580   -7.2690  -21.1520 N   0  0  0  0  0  0  0  0  0  0  0  0
   -3.0970   -8.1720  -22.0260 C   0  0  0  0  0  0  0  0  0  0  0  0
   -4.2190   -8.0360  -22.4890 O   0  0  0  0  0  0  0  0  0  0  0  0
   -3.1060   -6.4470  -20.9350 H   0  0  0  0  0  0  0  0  0  0  0  0
   -1.6240   -7.3480  -20.7780 H   0  0  0  0  0  0  0  0  0  0  0  0
  1 21  1  0  0  0  0
  1  2  1  0  0  0  0
  3  2  2  0  0  0  0
  4  3  1  0  0  0  0
  5  6  1  0  0  0  0
  5  4  2  0  0  0  0
  6  1  2  0  0  0  0
  7  5  1  0  0  0  0
  8  7  1  0  0  0  0
  8 11  1  0  0  0  0
  9  8  2  0  0  0  0
 10  7  1  0  0  0  0
 11 19  1  0  0  0  0
 12 11  2  0  0  0  0
 12 13  1  0  0  0  0
 13 14  2  0  0  0  0
 14 18  1  0  0  0  0
 14 15  1  0  0  0  0
 15 16  2  0  0  0  0
 17 16  1  0  0  0  0
 17 20  1  0  0  0  0
 18 17  1  0  0  0  0
 19 18  2  0  0  0  0
 21 28  1  0  0  0  0
 22 35  1  0  0  0  0
 22 23  1  0  0  0  0
 24 23  2  0  0  0  0
 25 24  1  0  0  0  0
 26 32  1  0  0  0  0
 26 25  2  0  0  0  0
 27 26  1  0  0  0  0
 28 27  1  0  0  0  0
 28 33  1  0  0  0  0
 29 30  1  0  0  0  0
 29 27  2  0  0  0  0
 30 31  2  0  0  0  0
 31 32  1  0  0  0  0
 32 22  2  0  0  0  0
 34 37  1  0  0  0  0
 34 38  1  0  0  0  0
 35 34  1  0  0  0  0
 36 35  2  0  0  0  0
M  END
>  <minimizedAffinity>
-9.19046593

$$$$

 OpenBabel10152418443D

 38 42  0  0  0  0  0  0  0  0999 V2000
    2.3210  -11.4950  -26.8320 C   0  0  0  0  0  0  0  0  0  0  0  0
    3.2730  -12.0380  -25.9570 C   0  0  0  0  0  3  0  0  0  0  0  0
    4.5880  -11.5830  -25.9690 C   0  0  0  0  0  3  0  0  0  0  0  0
    4.9740  -10.5760  -26.8540 C   0  0  0  0  0  3  0  0  0  0  0  0
    4.0600  -10.0260  -27.7510 C   0  0  0  0  0  0  0  0  0  0  0  0
    2.7310  -10.4850  -27.7200 C   0  0  0  0  0  3  0  0  0  0  0  0
    4.3470   -9.0010  -28.6750 N   0  0  0  0  0  0  0  0  0  0  0  0
    3.7590   -7.7900  -28.9600 C   0  0  0  0  0  0  0  0  0  0  0  0
    4.1080   -7.1600  -29.9580 O   0  0  0  0  0  0  0  0  0  0  0  0
    5.1230   -9.1740  -29.3030 H   0  0  0  0  0  0  0  0  0  0  0  0
    2.7500   -7.1890  -28.0770 C   0  0  0  0  0  0  0  0  0  0  0  0
    2.6540   -7.6470  -26.7620 C   0  0  0  0  0  3  0  0  0  0  0  0
    1.7300   -7.0680  -25.8840 C   0  0  0  0  0  3  0  0  0  0  0  0
    0.8890   -6.0370  -26.3480 C   0  0  0  0  0  0  0  0  0  0  0  0
   -0.1200   -5.2390  -25.7400 C   0  0  0  0  0  3  0  0  0  0  0  0
   -0.6160   -4.3860  -26.6990 C   0  0  0  0  0  3  0  0  0  0  0  0
    0.0490   -4.6380  -27.8700 N   0  0  0  0  0  0  0  0  0  0  0  0
    0.9830   -5.6320  -27.6810 C   0  0  0  0  0  0  0  0  0  0  0  0
    1.8980   -6.1940  -28.5800 C   0  0  0  0  0  3  0  0  0  0  0  0
   -0.1140   -4.1620  -28.7460 H   0  0  0  0  0  0  0  0  0  0  0  0
    0.9070  -12.0380  -26.7540 C   0  0  0  0  0  2  0  0  0  0  0  0
   -2.0060   -9.5300  -22.0050 C   0  0  0  0  0  0  0  0  0  0  0  0
   -1.9170  -10.5740  -21.0720 C   0  0  0  0  0  3  0  0  0  0  0  0
   -1.2710  -11.7480  -21.4210 C   0  0  0  0  0  3  0  0  0  0  0  0
   -0.7300  -11.8690  -22.6980 C   0  0  0  0  0  3  0  0  0  0  0  0
   -0.8300  -10.8180  -23.6520 C   0  0  0  0  0  0  0  0  0  0  0  0
   -0.3200  -10.8820  -24.9670 C   0  0  0  0  0  0  0  0  0  0  0  0
    0.3600  -12.0210  -25.4060 N   0  0  0  0  0  0  0  0  0  0  0  0
   -0.4110   -9.8420  -25.8110 N   0  0  0  0  0  0  0  0  0  0  0  0
   -1.0150   -8.7420  -25.3610 C   0  0  0  0  0  3  0  0  0  0  0  0
   -1.5410   -8.5810  -24.1480 N   0  0  0  0  0  0  0  0  0  0  0  0
   -1.4700   -9.6170  -23.2960 C   0  0  0  0  0  0  0  0  0  0  0  0
   -0.0450  -12.8970  -25.1110 H   0  0  0  0  0  0  0  0  0  0  0  0
   -3.7020   -7.8800  -22.4400 N   0  0  0  0  0  0  0  0  0  0  0  0
   -2.7220   -8.3090  -21.5880 C   0  0  0  0  0  0  0  0  0  0  0  0
   -2.4230   -7.6890  -20.5790 O   0  0  0  0  0  0  0  0  0  0  0  0
   -4.2130   -7.0460  -22.1790 H   0  0  0  0  0  0  0  0  0  0  0  0
   -3.9840   -8.3900  -23.2640 H   0  0  0  0  0  0  0  0  0  0  0  0
  1 21  1  0  0  0  0
  1  2  1  0  0  0  0
  3  2  2  0  0  0  0
  4  3  1  0  0  0  0
  5  6  1  0  0  0  0
  5  4  2  0  0  0  0
  6  1  2  0  0  0  0
  7  5  1  0  0  0  0
  8  7  1  0  0  0  0
  8 11  1  0  0  0  0
  9  8  2  0  0  0  0
 10  7  1  0  0  0  0
 11 12  1  0  0  0  0
 12 13  2  0  0  0  0
 14 13  1  0  0  0  0
 14 15  1  0  0  0  0
 16 15  2  0  0  0  0
 17 18  1  0  0  0  0
 17 16  1  0  0  0  0
 18 14  2  0  0  0  0
 19 11  2  0  0  0  0
 19 18  1  0  0  0  0
 20 17  1  0  0  0  0
 21 28  1  0  0  0  0
 22 35  1  0  0  0  0
 22 23  1  0  0  0  0
 24 23  2  0  0  0  0
 25 24  1  0  0  0  0
 26 32  1  0  0  0  0
 26 25  2  0  0  0  0
 27 26  1  0  0  0  0
 28 33  1  0  0  0  0
 28 27  1  0  0  0  0
 29 30  1  0  0  0  0
 29 27  2  0  0  0  0
 30 31  2  0  0  0  0
 31 32  1  0  0  0  0
 32 22  2  0  0  0  0
 34 37  1  0  0  0  0
 34 35  1  0  0  0  0
 35 36  2  0  0  0  0
 38 34  1  0  0  0  0
M  END
>  <minimizedAffinity>
-9.18983364

$$$$
