
 OpenBabel10152418443D

 38 42  0  0  0  0  0  0  0  0999 V2000
   -0.1490   -6.3990  -27.2270 C   0  0  0  0  0  0  0  0  0  0  0  0
   -0.3520   -5.0240  -27.0430 C   0  0  0  0  0  3  0  0  0  0  0  0
    0.5910   -4.1020  -27.4840 C   0  0  0  0  0  3  0  0  0  0  0  0
    1.7540   -4.5380  -28.1200 C   0  0  0  0  0  3  0  0  0  0  0  0
    1.9990   -5.8980  -28.3040 C   0  0  0  0  0  0  0  0  0  0  0  0
    1.0310   -6.8190  -27.8640 C   0  0  0  0  0  3  0  0  0  0  0  0
    3.1340   -6.4380  -28.9420 N   0  0  0  0  0  0  0  0  0  0  0  0
    3.9130   -7.5480  -28.7100 C   0  0  0  0  0  0  0  0  0  0  0  0
    4.9740   -7.6880  -29.3170 O   0  0  0  0  0  0  0  0  0  0  0  0
    3.5050   -5.9020  -29.7170 H   0  0  0  0  0  0  0  0  0  0  0  0
    3.4950   -8.6110  -27.7860 C   0  0  0  0  0  0  0  0  0  0  0  0
    3.7140   -9.9400  -28.1540 C   0  0  0  0  0  3  0  0  0  0  0  0
    3.3640  -10.9750  -27.2790 C   0  0  0  0  0  3  0  0  0  0  0  0
    2.7730  -10.6620  -26.0390 C   0  0  0  0  0  0  0  0  0  0  0  0
    2.3240  -11.4400  -24.9360 C   0  0  0  0  0  3  0  0  0  0  0  0
    1.8180  -10.5780  -23.9910 C   0  0  0  0  0  3  0  0  0  0  0  0
    1.9380   -9.3030  -24.4780 N   0  0  0  0  0  0  0  0  0  0  0  0
    2.5300   -9.3240  -25.7210 C   0  0  0  0  0  0  0  0  0  0  0  0
    2.8700   -8.2690  -26.5770 C   0  0  0  0  0  3  0  0  0  0  0  0
    1.6420   -8.4650  -23.9970 H   0  0  0  0  0  0  0  0  0  0  0  0
   -1.2260   -7.3410  -26.7240 C   0  0  0  0  0  2  0  0  0  0  0  0
   -1.8480   -9.9300  -21.2250 C   0  0  0  0  0  0  0  0  0  0  0  0
   -1.9060   -8.7900  -20.4110 C   0  0  0  0  0  3  0  0  0  0  0  0
   -1.8250   -7.5340  -20.9900 C   0  0  0  0  0  3  0  0  0  0  0  0
   -1.6770   -7.4340  -22.3710 C   0  0  0  0  0  3  0  0  0  0  0  0
   -1.6030   -8.5890  -23.1980 C   0  0  0  0  0  0  0  0  0  0  0  0
   -1.4370   -8.5580  -24.6000 C   0  0  0  0  0  0  0  0  0  0  0  0
   -1.3590   -7.3370  -25.2750 N   0  0  0  0  0  0  0  0  0  0  0  0
   -1.4130   -9.6820  -25.3330 N   0  0  0  0  0  0  0  0  0  0  0  0
   -1.5430  -10.8380  -24.6810 C   0  0  0  0  0  3  0  0  0  0  0  0
   -1.6910  -10.9810  -23.3650 N   0  0  0  0  0  0  0  0  0  0  0  0
   -1.7030   -9.8650  -22.6160 C   0  0  0  0  0  0  0  0  0  0  0  0
   -0.8090   -6.6300  -24.8090 H   0  0  0  0  0  0  0  0  0  0  0  0
   -0.7950  -12.0160  -20.6480 N   0  0  0  0  0  0  0  0  0  0  0  0
   -1.9190  -11.2440  -20.5540 C   0  0  0  0  0  0  0  0  0  0  0  0
   -2.9340  -11.6400  -20.0010 O   0  0  0  0  0  0  0  0  0  0  0  0
   -0.8130  -12.9210  -20.1960 H   0  0  0  0  0  0  0  0  0  0  0  0
    0.0630  -11.6990  -21.0770 H   0  0  0  0  0  0  0  0  0  0  0  0
  1  2  1  0  0  0  0
  1 21  1  0  0  0  0
  3  2  2  0  0  0  0
  4  3  1  0  0  0  0
  5  4  2  0  0  0  0
  5  6  1  0  0  0  0
  6  1  2  0  0  0  0
  7  8  1  0  0  0  0
  7  5  1  0  0  0  0
  8 11  1  0  0  0  0
  9  8  2  0  0  0  0
 10  7  1  0  0  0  0
 11 19  1  0  0  0  0
 12 11  2  0  0  0  0
 12 13  1  0  0  0  0
 13 14  2  0  0  0  0
 14 18  1  0  0  0  0
 14 15  1  0  0  0  0
 15 16  2  0  0  0  0
 17 20  1  0  0  0  0
 17 16  1  0  0  0  0
 18 17  1  0  0  0  0
 19 18  2  0  0  0  0
 21 28  1  0  0  0  0
 22 35  1  0  0  0  0
 22 23  1  0  0  0  0
 24 23  2  0  0  0  0
 25 24  1  0  0  0  0
 26 32  1  0  0  0  0
 26 25  2  0  0  0  0
 27 26  1  0  0  0  0
 28 33  1  0  0  0  0
 28 27  1  0  0  0  0
 29 30  1  0  0  0  0
 29 27  2  0  0  0  0
 30 31  2  0  0  0  0
 31 32  1  0  0  0  0
 32 22  2  0  0  0  0
 34 35  1  0  0  0  0
 34 37  1  0  0  0  0
 35 36  2  0  0  0  0
 38 34  1  0  0  0  0
M  END
>  <minimizedAffinity>
-10.0980549

$$$$
