REMARK  Name = 
REMARK  5 active torsions:
REMARK  status: ('A' for Active; 'I' for Inactive)
REMARK    1  A    between atoms: C_2  and  C_4
REMARK    2  A    between atoms: N_10  and  C_11
REMARK    3  A    between atoms: C_11  and  C_12
REMARK    4  A    between atoms: C_16  and  N_17
REMARK    5  A    between atoms: C_18  and  C_20
REMARK                            x       y       z     vdW  Elec       q    Type
REMARK                         _______ _______ _______ _____ _____    ______ ____
ROOT
ATOM      1  C   UNL     1       2.229  -6.577   6.573  0.00  0.00    -0.029 A 
ATOM      2  C   UNL     1       1.860  -7.878   6.944  0.00  0.00    +0.005 A 
ATOM      3  C   UNL     1       2.825  -8.819   7.287  0.00  0.00    +0.002 A 
ATOM      4  C   UNL     1       4.178  -8.476   7.268  0.00  0.00    +0.023 A 
ATOM      5  C   UNL     1       4.584  -7.198   6.886  0.00  0.00    +0.034 A 
ATOM      6  C   UNL     1       3.597  -6.252   6.554  0.00  0.00    +0.028 A 
ENDROOT
BRANCH   5   7
ATOM      7  N   UNL     1       5.920  -6.751   6.844  0.00  0.00    -0.281 N 
ATOM      8  C   UNL     1       7.134  -7.378   7.001  0.00  0.00    +0.248 C 
ATOM      9  O   UNL     1       8.161  -6.707   7.101  0.00  0.00    -0.270 OA
ATOM     10  H   UNL     1       6.051  -5.756   6.707  0.00  0.00    +0.155 HD
BRANCH   8  11
ATOM     11  C   UNL     1       7.258  -8.842   7.006  0.00  0.00    +0.039 A 
ATOM     12  C   UNL     1       7.660  -9.475   8.183  0.00  0.00    +0.014 A 
ATOM     13  C   UNL     1       7.749 -10.871   8.233  0.00  0.00    +0.011 A 
ATOM     14  C   UNL     1       7.450 -11.624   7.080  0.00  0.00    -0.000 A 
ATOM     15  C   UNL     1       7.421 -13.017   6.792  0.00  0.00    +0.027 A 
ATOM     16  C   UNL     1       7.062 -13.166   5.472  0.00  0.00    +0.083 A 
ATOM     17  N   UNL     1       6.875 -11.916   4.944  0.00  0.00    -0.361 N 
ATOM     18  C   UNL     1       7.092 -10.956   5.907  0.00  0.00    +0.047 A 
ATOM     19  C   UNL     1       6.995  -9.561   5.830  0.00  0.00    +0.039 A 
ATOM     20  H   UNL     1       6.610 -11.721   3.988  0.00  0.00    +0.165 HD
ENDBRANCH   8  11
ENDBRANCH   5   7
BRANCH   1  21
ATOM     21  C   UNL     1       1.119  -5.606   6.219  0.00  0.00    +0.138 C 
BRANCH  21  28
ATOM     22  C   UNL     1       1.044  -0.863   2.368  0.00  0.00    +0.063 A 
ATOM     23  C   UNL     1       2.187  -0.171   2.794  0.00  0.00    +0.015 A 
ATOM     24  C   UNL     1       2.943  -0.679   3.837  0.00  0.00    +0.002 A 
ATOM     25  C   UNL     1       2.543  -1.865   4.448  0.00  0.00    +0.013 A 
ATOM     26  C   UNL     1       1.376  -2.562   4.028  0.00  0.00    +0.041 A 
ATOM     27  C   UNL     1       0.907  -3.758   4.614  0.00  0.00    +0.130 A 
ATOM     28  N   UNL     1       1.610  -4.354   5.664  0.00  0.00    -0.324 N 
ATOM     29  N   UNL     1      -0.181  -4.392   4.149  0.00  0.00    -0.220 NA
ATOM     30  C   UNL     1      -0.812  -3.841   3.112  0.00  0.00    +0.223 A 
ATOM     31  N   UNL     1      -0.463  -2.713   2.495  0.00  0.00    -0.235 NA
ATOM     32  C   UNL     1       0.616  -2.059   2.957  0.00  0.00    +0.088 A 
ATOM     33  H   UNL     1       1.973  -3.709   6.351  0.00  0.00    +0.148 HD
BRANCH  22  35
ATOM     34  N   UNL     1       0.912  -0.181   0.064  0.00  0.00    -0.325 N 
ATOM     35  C   UNL     1       0.264  -0.267   1.265  0.00  0.00    +0.244 C 
ATOM     36  O   UNL     1      -0.864   0.173   1.427  0.00  0.00    -0.270 OA
ATOM     37  H   UNL     1       0.402   0.221  -0.712  0.00  0.00    +0.145 HD
ATOM     38  H   UNL     1       1.833  -0.561  -0.099  0.00  0.00    +0.145 HD
ENDBRANCH  22  35
ENDBRANCH  21  28
ENDBRANCH   1  21
TORSDOF 5
