REMARK  Name = 
REMARK  8 active torsions:
REMARK  status: ('A' for Active; 'I' for Inactive)
REMARK    1  A    between atoms: C_1  and  C_2
REMARK    2  A    between atoms: C_2  and  N_3
REMARK    3  A    between atoms: C_2  and  C_17
REMARK    4  A    between atoms: N_3  and  C_4
REMARK    5  A    between atoms: C_9  and  C_10
REMARK    6  A    between atoms: C_21  and  N_22
REMARK    7  A    between atoms: C_23  and  C_25
REMARK    8  A    between atoms: C_28  and  C_29
REMARK                            x       y       z     vdW  Elec       q    Type
REMARK                         _______ _______ _______ _____ _____    ______ ____
ROOT
ATOM      1  C   UNL     1      -0.853  -0.324  -0.918  0.00  0.00    -0.026 A 
ATOM      2  C   UNL     1      -1.406   0.964  -0.973  0.00  0.00    +0.005 A 
ATOM      3  C   UNL     1      -2.747   1.174  -0.665  0.00  0.00    +0.002 A 
ATOM      4  C   UNL     1      -3.576   0.090  -0.370  0.00  0.00    +0.023 A 
ATOM      5  C   UNL     1      -3.074  -1.208  -0.373  0.00  0.00    +0.034 A 
ATOM      6  C   UNL     1      -1.691  -1.381  -0.520  0.00  0.00    +0.028 A 
ENDROOT
BRANCH   5   7
ATOM      7  N   UNL     1      -3.841  -2.388  -0.289  0.00  0.00    -0.281 N 
ATOM      8  C   UNL     1      -5.189  -2.650  -0.386  0.00  0.00    +0.250 C 
ATOM      9  O   UNL     1      -5.611  -3.792  -0.214  0.00  0.00    -0.270 OA
ATOM     10  H   UNL     1      -3.320  -3.253  -0.193  0.00  0.00    +0.155 HD
BRANCH   8  11
ATOM     11  C   UNL     1      -6.158  -1.596  -0.684  0.00  0.00    +0.055 A 
ATOM     12  C   UNL     1      -6.193  -0.923  -1.903  0.00  0.00    +0.016 A 
ATOM     13  C   UNL     1      -7.037   0.182  -2.033  0.00  0.00    +0.033 A 
ATOM     14  C   UNL     1      -7.829   0.573  -0.945  0.00  0.00    +0.144 A 
ATOM     15  N   UNL     1      -7.857  -0.146   0.217  0.00  0.00    -0.250 NA
ATOM     16  C   UNL     1      -7.036  -1.218   0.317  0.00  0.00    +0.124 A 
BRANCH  14  17
ATOM     17  C   UNL     1      -8.661   1.849  -1.031  0.00  0.00    +0.434 C 
ATOM     18  F   UNL     1      -9.988   1.615  -1.229  0.00  0.00    -0.164 F 
ATOM     19  F   UNL     1      -8.573   2.621   0.091  0.00  0.00    -0.164 F 
ATOM     20  F   UNL     1      -8.274   2.667  -2.056  0.00  0.00    -0.164 F 
ENDBRANCH  14  17
ENDBRANCH   8  11
ENDBRANCH   5   7
BRANCH   1  22
ATOM     21  C   UNL     1       1.490  -0.184  -0.093  0.00  0.00    +0.033 C 
ATOM     22  C   UNL     1       0.612  -0.504  -1.309  0.00  0.00    +0.099 C 
BRANCH  22  23
ATOM     23  N   UNL     1       1.017  -1.807  -1.847  0.00  0.00    -0.322 N 
ATOM     24  H   UNL     1       1.756  -2.266  -1.320  0.00  0.00    +0.148 HD
BRANCH  23  25
ATOM     25  C   UNL     1       0.245  -2.778  -2.433  0.00  0.00    +0.130 A 
ATOM     26  N   UNL     1       0.534  -3.989  -1.930  0.00  0.00    -0.220 NA
ATOM     27  C   UNL     1      -0.322  -4.969  -2.202  0.00  0.00    +0.223 A 
ATOM     28  N   UNL     1      -1.454  -4.842  -2.897  0.00  0.00    -0.235 NA
ATOM     29  C   UNL     1      -1.713  -3.648  -3.477  0.00  0.00    +0.088 A 
ATOM     30  C   UNL     1      -2.887  -3.418  -4.222  0.00  0.00    +0.063 A 
ATOM     31  C   UNL     1      -3.107  -2.195  -4.884  0.00  0.00    +0.015 A 
ATOM     32  C   UNL     1      -2.175  -1.173  -4.804  0.00  0.00    +0.002 A 
ATOM     33  C   UNL     1      -1.042  -1.357  -4.024  0.00  0.00    +0.013 A 
ATOM     34  C   UNL     1      -0.819  -2.570  -3.326  0.00  0.00    +0.041 A 
BRANCH  30  35
ATOM     35  C   UNL     1      -4.000  -4.414  -4.326  0.00  0.00    +0.244 C 
ATOM     36  N   UNL     1      -3.889  -5.589  -3.644  0.00  0.00    -0.325 N 
ATOM     37  O   UNL     1      -5.009  -4.175  -4.979  0.00  0.00    -0.270 OA
ATOM     38  H   UNL     1      -4.655  -6.247  -3.667  0.00  0.00    +0.145 HD
ATOM     39  H   UNL     1      -3.060  -5.803  -3.097  0.00  0.00    +0.145 HD
ENDBRANCH  30  35
ENDBRANCH  23  25
ENDBRANCH  22  23
ENDBRANCH   1  22
TORSDOF 7
