
 OpenBabel10152418123D

 38 41  0  0  1  0  0  0  0  0999 V2000
    1.4620  -11.4300  -25.0810 C   0  0  0  0  0  0  0  0  0  0  0  0
    1.0280  -11.7060  -26.3810 C   0  0  0  0  0  3  0  0  0  0  0  0
   -0.3140  -11.5750  -26.7260 C   0  0  0  0  0  3  0  0  0  0  0  0
   -1.2270  -11.0860  -25.7920 C   0  0  0  0  0  3  0  0  0  0  0  0
   -0.8130  -10.7380  -24.4950 C   0  0  0  0  0  0  0  0  0  0  0  0
    0.5370  -10.9770  -24.1290 C   0  0  0  0  0  3  0  0  0  0  0  0
    3.9100  -11.3390  -25.7470 C   0  0  0  0  0  0  0  0  0  0  0  0
    4.9030  -12.0360  -25.5310 O   0  0  0  0  0  0  0  0  0  0  0  0
    2.8520  -11.4420  -24.8810 N   0  0  0  0  0  0  0  0  0  0  0  0
    3.1570  -11.7460  -23.9630 H   0  0  0  0  0  0  0  0  0  0  0  0
    3.7570   -8.8480  -28.4260 C   0  0  0  0  0  0  0  0  0  0  0  0
    3.8920  -10.2280  -28.1040 C   0  0  0  0  0  3  0  0  0  0  0  0
    3.9500  -10.2840  -26.7250 C   0  0  0  0  0  0  0  0  0  0  0  0
    3.9040   -8.9750  -26.3270 N   0  0  0  0  0  0  0  0  0  0  0  0
    3.7780   -8.0900  -27.3240 N   0  0  0  0  0  0  0  0  0  0  0  0
    3.8970   -8.6330  -25.3710 H   0  0  0  0  0  0  0  0  0  0  0  0
    3.0680   -6.7690  -29.6230 C   0  0  0  0  0  1  0  0  0  0  0  0
    3.6270   -8.1890  -29.7740 C   0  0  0  0  0  3  0  0  0  0  0  0
    4.9120   -8.2660  -30.6080 C   0  0  0  0  0  1  0  0  0  0  0  0
   -1.7480   -9.9540  -23.5600 C   0  0  1  0  0  3  0  0  0  0  0  0
   -1.0790   -9.7550  -22.1980 C   0  0  0  0  0  1  0  0  0  0  0  0
   -2.0970   -8.6340  -24.0870 N   0  0  0  0  0  0  0  0  0  0  0  0
   -3.0630   -8.4210  -24.2690 H   0  0  0  0  0  0  0  0  0  0  0  0
   -1.2170   -7.5940  -23.7920 C   0  0  0  0  0  0  0  0  0  0  0  0
   -1.4270   -6.9300  -22.6440 N   0  0  0  0  0  0  0  0  0  0  0  0
   -0.9950   -5.6740  -22.6010 C   0  0  0  0  0  3  0  0  0  0  0  0
   -0.5070   -5.0090  -23.6440 N   0  0  0  0  0  0  0  0  0  0  0  0
   -0.2830   -5.7110  -24.7760 C   0  0  0  0  0  0  0  0  0  0  0  0
   -0.0530   -5.1190  -26.0200 C   0  0  0  0  0  0  0  0  0  0  0  0
    0.6090   -5.7840  -27.0600 C   0  0  0  0  0  3  0  0  0  0  0  0
    0.7500   -7.1560  -26.9810 C   0  0  0  0  0  3  0  0  0  0  0  0
    0.1330   -7.8150  -25.9210 C   0  0  0  0  0  3  0  0  0  0  0  0
   -0.4130   -7.0870  -24.8240 C   0  0  0  0  0  0  0  0  0  0  0  0
   -1.1360   -4.1820  -26.4230 C   0  0  0  0  0  0  0  0  0  0  0  0
   -1.0400   -2.8870  -25.9770 N   0  0  0  0  0  0  0  0  0  0  0  0
   -1.9960   -4.4770  -27.2350 O   0  0  0  0  0  0  0  0  0  0  0  0
   -1.6660   -2.2100  -26.3940 H   0  0  0  0  0  0  0  0  0  0  0  0
   -0.2850   -2.5400  -25.4050 H   0  0  0  0  0  0  0  0  0  0  0  0
  1  9  1  0  0  0  0
  1  6  1  0  0  0  0
  2  1  2  0  0  0  0
  3  2  1  0  0  0  0
  3  4  2  0  0  0  0
  4  5  1  0  0  0  0
  5  6  2  0  0  0  0
  5 20  1  0  0  0  0
  7  8  2  0  0  0  0
  7  9  1  0  0  0  0
  9 10  1  0  0  0  0
 11 12  1  0  0  0  0
 11 15  2  0  0  0  0
 12 13  2  0  0  0  0
 13 14  1  0  0  0  0
 13  7  1  0  0  0  0
 14 16  1  0  0  0  0
 15 14  1  0  0  0  0
 18 17  1  0  0  0  0
 18 11  1  0  0  0  0
 19 18  1  0  0  0  0
 20 21  1  1  0  0  0
 22 24  1  0  0  0  0
 22 20  1  0  0  0  0
 23 22  1  0  0  0  0
 24 25  1  0  0  0  0
 25 26  2  0  0  0  0
 27 26  1  0  0  0  0
 28 27  2  0  0  0  0
 29 28  1  0  0  0  0
 30 31  1  0  0  0  0
 30 29  2  0  0  0  0
 31 32  2  0  0  0  0
 32 33  1  0  0  0  0
 33 28  1  0  0  0  0
 33 24  2  0  0  0  0
 34 29  1  0  0  0  0
 34 35  1  0  0  0  0
 35 38  1  0  0  0  0
 36 34  2  0  0  0  0
 37 35  1  0  0  0  0
M  END
>  <minimizedAffinity>
-8.18020248

$$$$
