
 OpenBabel10152418123D

 38 41  0  0  1  0  0  0  0  0999 V2000
    1.4620  -11.4300  -25.0810 C   0  0  0  0  0  0  0  0  0  0  0  0
    1.0280  -11.7060  -26.3810 C   0  0  0  0  0  3  0  0  0  0  0  0
   -0.3140  -11.5750  -26.7260 C   0  0  0  0  0  3  0  0  0  0  0  0
   -1.2270  -11.0860  -25.7920 C   0  0  0  0  0  3  0  0  0  0  0  0
   -0.8130  -10.7380  -24.4950 C   0  0  0  0  0  0  0  0  0  0  0  0
    0.5370  -10.9770  -24.1290 C   0  0  0  0  0  3  0  0  0  0  0  0
    3.9100  -11.3390  -25.7470 C   0  0  0  0  0  0  0  0  0  0  0  0
    4.9030  -12.0360  -25.5310 O   0  0  0  0  0  0  0  0  0  0  0  0
    2.8520  -11.4420  -24.8810 N   0  0  0  0  0  0  0  0  0  0  0  0
    3.1570  -11.7460  -23.9630 H   0  0  0  0  0  0  0  0  0  0  0  0
    3.7570   -8.8480  -28.4260 C   0  0  0  0  0  0  0  0  0  0  0  0
    3.8920  -10.2280  -28.1040 C   0  0  0  0  0  3  0  0  0  0  0  0
    3.9500  -10.2840  -26.7250 C   0  0  0  0  0  0  0  0  0  0  0  0
    3.9040   -8.9750  -26.3270 N   0  0  0  0  0  0  0  0  0  0  0  0
    3.7780   -8.0900  -27.3240 N   0  0  0  0  0  0  0  0  0  0  0  0
    3.8970   -8.6330  -25.3710 H   0  0  0  0  0  0  0  0  0  0  0  0
    3.0680   -6.7690  -29.6230 C   0  0  0  0  0  1  0  0  0  0  0  0
    3.6270   -8.1890  -29.7740 C   0  0  0  0  0  3  0  0  0  0  0  0
    4.9120   -8.2660  -30.6080 C   0  0  0  0  0  1  0  0  0  0  0  0
   -1.7480   -9.9540  -23.5600 C   0  0  1  0  0  3  0  0  0  0  0  0
   -1.0790   -9.7550  -22.1980 C   0  0  0  0  0  1  0  0  0  0  0  0
   -2.0970   -8.6340  -24.0870 N   0  0  0  0  0  0  0  0  0  0  0  0
   -3.0630   -8.4210  -24.2690 H   0  0  0  0  0  0  0  0  0  0  0  0
   -1.2170   -7.5940  -23.7920 C   0  0  0  0  0  0  0  0  0  0  0  0
   -1.4270   -6.9300  -22.6440 N   0  0  0  0  0  0  0  0  0  0  0  0
   -0.9950   -5.6740  -22.6010 C   0  0  0  0  0  3  0  0  0  0  0  0
   -0.5070   -5.0090  -23.6440 N   0  0  0  0  0  0  0  0  0  0  0  0
   -0.2830   -5.7110  -24.7760 C   0  0  0  0  0  0  0  0  0  0  0  0
   -0.0530   -5.1190  -26.0200 C   0  0  0  0  0  0  0  0  0  0  0  0
    0.6090   -5.7840  -27.0600 C   0  0  0  0  0  3  0  0  0  0  0  0
    0.7500   -7.1560  -26.9810 C   0  0  0  0  0  3  0  0  0  0  0  0
    0.1330   -7.8150  -25.9210 C   0  0  0  0  0  3  0  0  0  0  0  0
   -0.4130   -7.0870  -24.8240 C   0  0  0  0  0  0  0  0  0  0  0  0
   -1.1360   -4.1820  -26.4230 C   0  0  0  0  0  0  0  0  0  0  0  0
   -1.0400   -2.8870  -25.9770 N   0  0  0  0  0  0  0  0  0  0  0  0
   -1.9960   -4.4770  -27.2350 O   0  0  0  0  0  0  0  0  0  0  0  0
   -1.6660   -2.2100  -26.3940 H   0  0  0  0  0  0  0  0  0  0  0  0
   -0.2850   -2.5400  -25.4050 H   0  0  0  0  0  0  0  0  0  0  0  0
  1  9  1  0  0  0  0
  1  6  1  0  0  0  0
  2  1  2  0  0  0  0
  3  2  1  0  0  0  0
  3  4  2  0  0  0  0
  4  5  1  0  0  0  0
  5  6  2  0  0  0  0
  5 20  1  0  0  0  0
  7  8  2  0  0  0  0
  7  9  1  0  0  0  0
  9 10  1  0  0  0  0
 11 12  1  0  0  0  0
 11 15  2  0  0  0  0
 12 13  2  0  0  0  0
 13 14  1  0  0  0  0
 13  7  1  0  0  0  0
 14 16  1  0  0  0  0
 15 14  1  0  0  0  0
 18 17  1  0  0  0  0
 18 11  1  0  0  0  0
 19 18  1  0  0  0  0
 20 21  1  1  0  0  0
 22 24  1  0  0  0  0
 22 20  1  0  0  0  0
 23 22  1  0  0  0  0
 24 25  1  0  0  0  0
 25 26  2  0  0  0  0
 27 26  1  0  0  0  0
 28 27  2  0  0  0  0
 29 28  1  0  0  0  0
 30 31  1  0  0  0  0
 30 29  2  0  0  0  0
 31 32  2  0  0  0  0
 32 33  1  0  0  0  0
 33 28  1  0  0  0  0
 33 24  2  0  0  0  0
 34 29  1  0  0  0  0
 34 35  1  0  0  0  0
 35 38  1  0  0  0  0
 36 34  2  0  0  0  0
 37 35  1  0  0  0  0
M  END
>  <minimizedAffinity>
-8.18020248

$$$$

 OpenBabel10152418123D

 38 41  0  0  1  0  0  0  0  0999 V2000
   -0.9460   -8.3920  -23.3400 C   0  0  0  0  0  0  0  0  0  0  0  0
   -1.6540   -9.3770  -22.6460 C   0  0  0  0  0  3  0  0  0  0  0  0
   -1.3860  -10.7270  -22.8550 C   0  0  0  0  0  3  0  0  0  0  0  0
   -0.3460  -11.1060  -23.7030 C   0  0  0  0  0  3  0  0  0  0  0  0
    0.4290  -10.1390  -24.3680 C   0  0  0  0  0  0  0  0  0  0  0  0
    0.0740   -8.7730  -24.2250 C   0  0  0  0  0  3  0  0  0  0  0  0
   -0.5540   -5.8860  -23.2430 C   0  0  0  0  0  0  0  0  0  0  0  0
   -0.4270   -5.0530  -22.3430 O   0  0  0  0  0  0  0  0  0  0  0  0
   -1.1840   -7.0660  -22.9420 N   0  0  0  0  0  0  0  0  0  0  0  0
   -1.8230   -6.9530  -22.1640 H   0  0  0  0  0  0  0  0  0  0  0  0
    0.1420   -5.3690  -26.8010 C   0  0  0  0  0  0  0  0  0  0  0  0
    0.4770   -6.1000  -25.6260 C   0  0  0  0  0  3  0  0  0  0  0  0
   -0.2730   -5.5400  -24.6110 C   0  0  0  0  0  0  0  0  0  0  0  0
   -0.9430   -4.5070  -25.2110 N   0  0  0  0  0  0  0  0  0  0  0  0
   -0.7230   -4.3850  -26.5260 N   0  0  0  0  0  0  0  0  0  0  0  0
   -1.6160   -3.8860  -24.7720 H   0  0  0  0  0  0  0  0  0  0  0  0
    1.3240   -4.2680  -28.7020 C   0  0  0  0  0  1  0  0  0  0  0  0
    0.6350   -5.5470  -28.2120 C   0  0  0  0  0  3  0  0  0  0  0  0
    1.4740   -6.8170  -28.4010 C   0  0  0  0  0  1  0  0  0  0  0  0
    1.7310  -10.5370  -25.0800 C   0  0  1  0  0  3  0  0  0  0  0  0
    1.7250  -12.0380  -25.3820 C   0  0  0  0  0  1  0  0  0  0  0  0
    1.9240   -9.8260  -26.3450 N   0  0  0  0  0  0  0  0  0  0  0  0
    1.1340   -9.3790  -26.7790 H   0  0  0  0  0  0  0  0  0  0  0  0
    3.2040   -9.3330  -26.5920 C   0  0  0  0  0  0  0  0  0  0  0  0
    3.5300   -8.1710  -26.0030 N   0  0  0  0  0  0  0  0  0  0  0  0
    4.4580   -7.4400  -26.6120 C   0  0  0  0  0  3  0  0  0  0  0  0
    4.9680   -7.7140  -27.8090 N   0  0  0  0  0  0  0  0  0  0  0  0
    4.6420   -8.9020  -28.3630 C   0  0  0  0  0  0  0  0  0  0  0  0
    4.8530   -9.2110  -29.7080 C   0  0  0  0  0  0  0  0  0  0  0  0
    4.9480  -10.5300  -30.1730 C   0  0  0  0  0  3  0  0  0  0  0  0
    4.4990  -11.5500  -29.3570 C   0  0  0  0  0  3  0  0  0  0  0  0
    3.8810  -11.2030  -28.1580 C   0  0  0  0  0  3  0  0  0  0  0  0
    3.9280   -9.8640  -27.6710 C   0  0  0  0  0  0  0  0  0  0  0  0
    4.2210   -8.2320  -30.6330 C   0  0  0  0  0  0  0  0  0  0  0  0
    4.6830   -6.9390  -30.5860 N   0  0  0  0  0  0  0  0  0  0  0  0
    3.4390   -8.5600  -31.5090 O   0  0  0  0  0  0  0  0  0  0  0  0
    4.3900   -6.3200  -31.3300 H   0  0  0  0  0  0  0  0  0  0  0  0
    5.4200   -6.6250  -29.9720 H   0  0  0  0  0  0  0  0  0  0  0  0
  1  9  1  0  0  0  0
  1  2  1  0  0  0  0
  3  2  2  0  0  0  0
  4  3  1  0  0  0  0
  5  6  1  0  0  0  0
  5  4  2  0  0  0  0
  6  1  2  0  0  0  0
  7  9  1  0  0  0  0
  7  8  2  0  0  0  0
  9 10  1  0  0  0  0
 11 15  2  0  0  0  0
 11 12  1  0  0  0  0
 12 13  2  0  0  0  0
 13  7  1  0  0  0  0
 14 16  1  0  0  0  0
 14 13  1  0  0  0  0
 15 14  1  0  0  0  0
 17 18  1  0  0  0  0
 18 11  1  0  0  0  0
 19 18  1  0  0  0  0
 20 21  1  6  0  0  0
 20  5  1  0  0  0  0
 22 20  1  0  0  0  0
 23 22  1  0  0  0  0
 24 22  1  0  0  0  0
 24 25  1  0  0  0  0
 26 25  2  0  0  0  0
 27 26  1  0  0  0  0
 28 27  2  0  0  0  0
 28 33  1  0  0  0  0
 29 28  1  0  0  0  0
 30 29  2  0  0  0  0
 30 31  1  0  0  0  0
 31 32  2  0  0  0  0
 32 33  1  0  0  0  0
 33 24  2  0  0  0  0
 34 35  1  0  0  0  0
 34 29  1  0  0  0  0
 35 38  1  0  0  0  0
 36 34  2  0  0  0  0
 37 35  1  0  0  0  0
M  END
>  <minimizedAffinity>
-8.12573433

$$$$

 OpenBabel10152418123D

 38 41  0  0  1  0  0  0  0  0999 V2000
    2.0120   -6.4790  -28.7140 C   0  0  0  0  0  0  0  0  0  0  0  0
    1.4510   -5.1990  -28.7310 C   0  0  0  0  0  3  0  0  0  0  0  0
    0.6780   -4.7460  -27.6650 C   0  0  0  0  0  3  0  0  0  0  0  0
    0.5270   -5.5410  -26.5300 C   0  0  0  0  0  3  0  0  0  0  0  0
    1.1320   -6.8080  -26.4520 C   0  0  0  0  0  0  0  0  0  0  0  0
    1.8270   -7.2960  -27.5890 C   0  0  0  0  0  3  0  0  0  0  0  0
    4.0510   -7.5170  -29.8130 C   0  0  0  0  0  0  0  0  0  0  0  0
    4.9740   -7.1030  -30.5170 O   0  0  0  0  0  0  0  0  0  0  0  0
    2.8990   -6.7770  -29.7620 N   0  0  0  0  0  0  0  0  0  0  0  0
    2.7810   -6.2230  -30.6030 H   0  0  0  0  0  0  0  0  0  0  0  0
    3.8540  -10.7960  -28.1930 C   0  0  0  0  0  0  0  0  0  0  0  0
    3.8900   -9.3850  -28.0030 C   0  0  0  0  0  3  0  0  0  0  0  0
    4.0880   -8.8450  -29.2580 C   0  0  0  0  0  0  0  0  0  0  0  0
    4.2100   -9.9320  -30.0840 N   0  0  0  0  0  0  0  0  0  0  0  0
    4.0640  -11.1150  -29.4750 N   0  0  0  0  0  0  0  0  0  0  0  0
    4.3360   -9.9160  -31.0910 H   0  0  0  0  0  0  0  0  0  0  0  0
    4.6820  -11.7830  -26.0570 C   0  0  0  0  0  1  0  0  0  0  0  0
    3.6460  -11.8920  -27.1820 C   0  0  0  0  0  3  0  0  0  0  0  0
    2.1980  -11.9890  -26.6870 C   0  0  0  0  0  1  0  0  0  0  0  0
    1.1940   -7.5630  -25.1150 C   0  0  1  0  0  3  0  0  0  0  0  0
    0.5350   -6.7310  -24.0120 C   0  0  0  0  0  1  0  0  0  0  0  0
    0.5160   -8.8590  -25.1660 N   0  0  0  0  0  0  0  0  0  0  0  0
    1.0610   -9.6990  -25.0760 H   0  0  0  0  0  0  0  0  0  0  0  0
   -0.8240   -8.8750  -24.7810 C   0  0  0  0  0  0  0  0  0  0  0  0
   -1.6020   -7.8880  -25.2560 N   0  0  0  0  0  0  0  0  0  0  0  0
   -2.6640   -7.5690  -24.5230 C   0  0  0  0  0  3  0  0  0  0  0  0
   -2.9180   -8.0570  -23.3130 N   0  0  0  0  0  0  0  0  0  0  0  0
   -2.1340   -9.0660  -22.8750 C   0  0  0  0  0  0  0  0  0  0  0  0
   -2.0840   -9.4840  -21.5430 C   0  0  0  0  0  0  0  0  0  0  0  0
   -1.6520  -10.7640  -21.1710 C   0  0  0  0  0  3  0  0  0  0  0  0
   -0.9520  -11.5180  -22.0930 C   0  0  0  0  0  3  0  0  0  0  0  0
   -0.6250  -10.9230  -23.3080 C   0  0  0  0  0  3  0  0  0  0  0  0
   -1.1970   -9.6740  -23.6900 C   0  0  0  0  0  0  0  0  0  0  0  0
   -1.7540   -8.3790  -20.6030 C   0  0  0  0  0  0  0  0  0  0  0  0
   -2.5240   -7.2440  -20.6780 N   0  0  0  0  0  0  0  0  0  0  0  0
   -0.9500   -8.5020  -19.6950 O   0  0  0  0  0  0  0  0  0  0  0  0
   -2.4250   -6.5720  -19.9280 H   0  0  0  0  0  0  0  0  0  0  0  0
   -3.2910   -7.1230  -21.3220 H   0  0  0  0  0  0  0  0  0  0  0  0
  1  6  1  0  0  0  0
  2  1  2  0  0  0  0
  2  3  1  0  0  0  0
  3  4  2  0  0  0  0
  4  5  1  0  0  0  0
  5 20  1  0  0  0  0
  6  5  2  0  0  0  0
  7  9  1  0  0  0  0
  7 13  1  0  0  0  0
  8  7  2  0  0  0  0
  9  1  1  0  0  0  0
 10  9  1  0  0  0  0
 11 12  1  0  0  0  0
 11 18  1  0  0  0  0
 13 12  2  0  0  0  0
 14 15  1  0  0  0  0
 14 13  1  0  0  0  0
 15 11  2  0  0  0  0
 16 14  1  0  0  0  0
 18 19  1  0  0  0  0
 18 17  1  0  0  0  0
 20 21  1  1  0  0  0
 22 20  1  0  0  0  0
 22 23  1  0  0  0  0
 22 24  1  0  0  0  0
 24 33  1  0  0  0  0
 25 24  2  0  0  0  0
 25 26  1  0  0  0  0
 26 27  2  0  0  0  0
 27 28  1  0  0  0  0
 28 29  1  0  0  0  0
 29 30  2  0  0  0  0
 29 34  1  0  0  0  0
 31 30  1  0  0  0  0
 32 31  2  0  0  0  0
 33 32  1  0  0  0  0
 33 28  2  0  0  0  0
 34 36  2  0  0  0  0
 35 34  1  0  0  0  0
 35 37  1  0  0  0  0
 38 35  1  0  0  0  0
M  END
>  <minimizedAffinity>
-7.24855089

$$$$

 OpenBabel10152418123D

 38 41  0  0  1  0  0  0  0  0999 V2000
    2.4170   -8.1400  -26.6090 C   0  0  0  0  0  0  0  0  0  0  0  0
    2.4190   -7.3180  -25.4770 C   0  0  0  0  0  3  0  0  0  0  0  0
    2.1010   -7.8330  -24.2240 C   0  0  0  0  0  3  0  0  0  0  0  0
    1.8570   -9.1970  -24.0740 C   0  0  0  0  0  3  0  0  0  0  0  0
    1.9100  -10.0640  -25.1790 C   0  0  0  0  0  0  0  0  0  0  0  0
    2.1310   -9.5070  -26.4660 C   0  0  0  0  0  3  0  0  0  0  0  0
    2.3010   -6.7940  -28.7570 C   0  0  0  0  0  0  0  0  0  0  0  0
    2.6200   -6.9880  -29.9320 O   0  0  0  0  0  0  0  0  0  0  0  0
    2.9020   -7.5600  -27.7920 N   0  0  0  0  0  0  0  0  0  0  0  0
    3.8100   -7.8890  -28.0980 H   0  0  0  0  0  0  0  0  0  0  0  0
    0.2400   -4.0430  -27.4930 C   0  0  0  0  0  0  0  0  0  0  0  0
    0.3480   -5.4510  -27.6720 C   0  0  0  0  0  3  0  0  0  0  0  0
    1.5120   -5.6470  -28.3900 C   0  0  0  0  0  0  0  0  0  0  0  0
    1.9810   -4.3830  -28.6340 N   0  0  0  0  0  0  0  0  0  0  0  0
    1.2440   -3.4000  -28.1010 N   0  0  0  0  0  0  0  0  0  0  0  0
    2.8400   -4.1390  -29.1160 H   0  0  0  0  0  0  0  0  0  0  0  0
   -1.0610   -3.8340  -25.3750 C   0  0  0  0  0  1  0  0  0  0  0  0
   -0.8160   -3.2500  -26.7710 C   0  0  0  0  0  3  0  0  0  0  0  0
   -0.5440   -1.7400  -26.7750 C   0  0  0  0  0  1  0  0  0  0  0  0
    1.9100  -11.5870  -24.9780 C   0  0  1  0  0  3  0  0  0  0  0  0
    3.2520  -12.0380  -24.3950 C   0  0  0  0  0  1  0  0  0  0  0  0
    0.8530  -12.0390  -24.0730 N   0  0  0  0  0  0  0  0  0  0  0  0
    1.0850  -12.2500  -23.1170 H   0  0  0  0  0  0  0  0  0  0  0  0
   -0.4450  -11.6360  -24.3830 C   0  0  0  0  0  0  0  0  0  0  0  0
   -0.8100  -11.7080  -25.6740 N   0  0  0  0  0  0  0  0  0  0  0  0
   -1.7660  -10.8720  -26.0650 C   0  0  0  0  0  3  0  0  0  0  0  0
   -2.2710   -9.8990  -25.3120 N   0  0  0  0  0  0  0  0  0  0  0  0
   -1.9050   -9.8700  -24.0120 C   0  0  0  0  0  0  0  0  0  0  0  0
   -2.1110   -8.7700  -23.1760 C   0  0  0  0  0  0  0  0  0  0  0  0
   -2.1600   -8.8830  -21.7800 C   0  0  0  0  0  3  0  0  0  0  0  0
   -1.6710  -10.0350  -21.1950 C   0  0  0  0  0  3  0  0  0  0  0  0
   -1.0620  -10.9780  -22.0180 C   0  0  0  0  0  3  0  0  0  0  0  0
   -1.1540  -10.8790  -23.4380 C   0  0  0  0  0  0  0  0  0  0  0  0
   -1.5170   -7.5160  -23.7130 C   0  0  0  0  0  0  0  0  0  0  0  0
   -1.3580   -7.4340  -25.0750 N   0  0  0  0  0  0  0  0  0  0  0  0
   -1.3170   -6.5310  -23.0230 O   0  0  0  0  0  0  0  0  0  0  0  0
   -1.1300   -6.5250  -25.4560 H   0  0  0  0  0  0  0  0  0  0  0  0
   -1.6220   -8.1640  -25.7200 H   0  0  0  0  0  0  0  0  0  0  0  0
  1  6  2  0  0  0  0
  1  2  1  0  0  0  0
  2  3  2  0  0  0  0
  3  4  1  0  0  0  0
  5 20  1  0  0  0  0
  5  4  2  0  0  0  0
  6  5  1  0  0  0  0
  7 13  1  0  0  0  0
  7  9  1  0  0  0  0
  8  7  2  0  0  0  0
  9  1  1  0  0  0  0
 10  9  1  0  0  0  0
 11 18  1  0  0  0  0
 12 11  1  0  0  0  0
 13 12  2  0  0  0  0
 14 13  1  0  0  0  0
 14 15  1  0  0  0  0
 15 11  2  0  0  0  0
 16 14  1  0  0  0  0
 18 17  1  0  0  0  0
 19 18  1  0  0  0  0
 20 21  1  1  0  0  0
 20 22  1  0  0  0  0
 22 23  1  0  0  0  0
 24 22  1  0  0  0  0
 24 33  1  0  0  0  0
 25 24  2  0  0  0  0
 26 25  1  0  0  0  0
 26 27  2  0  0  0  0
 27 28  1  0  0  0  0
 28 33  2  0  0  0  0
 28 29  1  0  0  0  0
 29 30  2  0  0  0  0
 30 31  1  0  0  0  0
 32 31  2  0  0  0  0
 33 32  1  0  0  0  0
 34 29  1  0  0  0  0
 34 36  2  0  0  0  0
 35 34  1  0  0  0  0
 37 35  1  0  0  0  0
 38 35  1  0  0  0  0
M  END
>  <minimizedAffinity>
-6.93434238

$$$$

 OpenBabel10152418123D

 38 41  0  0  1  0  0  0  0  0999 V2000
    4.1190   -9.5880  -28.0140 C   0  0  0  0  0  0  0  0  0  0  0  0
    3.8460  -10.4170  -29.1060 C   0  0  0  0  0  3  0  0  0  0  0  0
    3.2320  -11.6530  -28.9240 C   0  0  0  0  0  3  0  0  0  0  0  0
    2.8080  -12.0390  -27.6530 C   0  0  0  0  0  3  0  0  0  0  0  0
    3.0090  -11.2010  -26.5420 C   0  0  0  0  0  0  0  0  0  0  0  0
    3.7300   -9.9930  -26.7280 C   0  0  0  0  0  3  0  0  0  0  0  0
    3.9870   -7.1980  -28.8580 C   0  0  0  0  0  0  0  0  0  0  0  0
    4.6330   -6.5130  -29.6540 O   0  0  0  0  0  0  0  0  0  0  0  0
    4.5960   -8.3030  -28.3210 N   0  0  0  0  0  0  0  0  0  0  0  0
    5.6040   -8.1980  -28.3090 H   0  0  0  0  0  0  0  0  0  0  0  0
    0.9610   -6.0110  -27.1720 C   0  0  0  0  0  0  0  0  0  0  0  0
    1.9910   -6.9940  -27.1960 C   0  0  0  0  0  3  0  0  0  0  0  0
    2.7350   -6.7260  -28.3280 C   0  0  0  0  0  0  0  0  0  0  0  0
    2.0920   -5.6710  -28.9190 N   0  0  0  0  0  0  0  0  0  0  0  0
    1.0300   -5.2140  -28.2440 N   0  0  0  0  0  0  0  0  0  0  0  0
    2.3770   -5.1850  -29.7630 H   0  0  0  0  0  0  0  0  0  0  0  0
    0.3870   -6.0630  -24.7440 C   0  0  0  0  0  1  0  0  0  0  0  0
   -0.1350   -5.7990  -26.1620 C   0  0  0  0  0  3  0  0  0  0  0  0
   -0.8490   -4.4510  -26.3210 C   0  0  0  0  0  1  0  0  0  0  0  0
    2.3110  -11.4950  -25.2050 C   0  0  1  0  0  3  0  0  0  0  0  0
    3.3250  -12.0380  -24.1940 C   0  0  0  0  0  1  0  0  0  0  0  0
    1.6860  -10.3090  -24.6200 N   0  0  0  0  0  0  0  0  0  0  0  0
    2.2220   -9.4620  -24.5420 H   0  0  0  0  0  0  0  0  0  0  0  0
    0.2970  -10.2260  -24.7160 C   0  0  0  0  0  0  0  0  0  0  0  0
   -0.1970   -9.4200  -25.6700 N   0  0  0  0  0  0  0  0  0  0  0  0
   -1.4060   -8.9160  -25.4490 C   0  0  0  0  0  3  0  0  0  0  0  0
   -2.0790   -9.0440  -24.3090 N   0  0  0  0  0  0  0  0  0  0  0  0
   -1.5690   -9.8810  -23.3800 C   0  0  0  0  0  0  0  0  0  0  0  0
   -1.9880   -9.9050  -22.0480 C   0  0  0  0  0  0  0  0  0  0  0  0
   -1.8130  -11.0230  -21.2230 C   0  0  0  0  0  3  0  0  0  0  0  0
   -0.9220  -12.0010  -21.6180 C   0  0  0  0  0  3  0  0  0  0  0  0
   -0.1690  -11.7720  -22.7670 C   0  0  0  0  0  3  0  0  0  0  0  0
   -0.4760  -10.6870  -23.6400 C   0  0  0  0  0  0  0  0  0  0  0  0
   -1.8840   -8.5760  -21.3860 C   0  0  0  0  0  0  0  0  0  0  0  0
   -2.6710   -7.5660  -21.8840 N   0  0  0  0  0  0  0  0  0  0  0  0
   -1.2600   -8.3990  -20.3540 O   0  0  0  0  0  0  0  0  0  0  0  0
   -2.7410   -6.7230  -21.3300 H   0  0  0  0  0  0  0  0  0  0  0  0
   -3.3080   -7.6760  -22.6590 H   0  0  0  0  0  0  0  0  0  0  0  0
  1  6  1  0  0  0  0
  2  3  1  0  0  0  0
  2  1  2  0  0  0  0
  3  4  2  0  0  0  0
  4  5  1  0  0  0  0
  5 20  1  0  0  0  0
  6  5  2  0  0  0  0
  7 13  1  0  0  0  0
  7  9  1  0  0  0  0
  8  7  2  0  0  0  0
  9 10  1  0  0  0  0
  9  1  1  0  0  0  0
 11 18  1  0  0  0  0
 12 11  1  0  0  0  0
 13 12  2  0  0  0  0
 14 13  1  0  0  0  0
 14 15  1  0  0  0  0
 15 11  2  0  0  0  0
 16 14  1  0  0  0  0
 18 17  1  0  0  0  0
 19 18  1  0  0  0  0
 20 22  1  0  0  0  0
 20 21  1  1  0  0  0
 22 23  1  0  0  0  0
 24 22  1  0  0  0  0
 24 33  1  0  0  0  0
 25 26  1  0  0  0  0
 25 24  2  0  0  0  0
 26 27  2  0  0  0  0
 27 28  1  0  0  0  0
 28 29  1  0  0  0  0
 29 34  1  0  0  0  0
 29 30  2  0  0  0  0
 31 30  1  0  0  0  0
 32 31  2  0  0  0  0
 33 28  2  0  0  0  0
 33 32  1  0  0  0  0
 34 36  2  0  0  0  0
 35 34  1  0  0  0  0
 35 37  1  0  0  0  0
 38 35  1  0  0  0  0
M  END
>  <minimizedAffinity>
-5.42400551

$$$$
