
 OpenBabel10152418123D

 38 41  0  0  1  0  0  0  0  0999 V2000
    4.1190   -9.5880  -28.0140 C   0  0  0  0  0  0  0  0  0  0  0  0
    3.8460  -10.4170  -29.1060 C   0  0  0  0  0  3  0  0  0  0  0  0
    3.2320  -11.6530  -28.9240 C   0  0  0  0  0  3  0  0  0  0  0  0
    2.8080  -12.0390  -27.6530 C   0  0  0  0  0  3  0  0  0  0  0  0
    3.0090  -11.2010  -26.5420 C   0  0  0  0  0  0  0  0  0  0  0  0
    3.7300   -9.9930  -26.7280 C   0  0  0  0  0  3  0  0  0  0  0  0
    3.9870   -7.1980  -28.8580 C   0  0  0  0  0  0  0  0  0  0  0  0
    4.6330   -6.5130  -29.6540 O   0  0  0  0  0  0  0  0  0  0  0  0
    4.5960   -8.3030  -28.3210 N   0  0  0  0  0  0  0  0  0  0  0  0
    5.6040   -8.1980  -28.3090 H   0  0  0  0  0  0  0  0  0  0  0  0
    0.9610   -6.0110  -27.1720 C   0  0  0  0  0  0  0  0  0  0  0  0
    1.9910   -6.9940  -27.1960 C   0  0  0  0  0  3  0  0  0  0  0  0
    2.7350   -6.7260  -28.3280 C   0  0  0  0  0  0  0  0  0  0  0  0
    2.0920   -5.6710  -28.9190 N   0  0  0  0  0  0  0  0  0  0  0  0
    1.0300   -5.2140  -28.2440 N   0  0  0  0  0  0  0  0  0  0  0  0
    2.3770   -5.1850  -29.7630 H   0  0  0  0  0  0  0  0  0  0  0  0
    0.3870   -6.0630  -24.7440 C   0  0  0  0  0  1  0  0  0  0  0  0
   -0.1350   -5.7990  -26.1620 C   0  0  0  0  0  3  0  0  0  0  0  0
   -0.8490   -4.4510  -26.3210 C   0  0  0  0  0  1  0  0  0  0  0  0
    2.3110  -11.4950  -25.2050 C   0  0  1  0  0  3  0  0  0  0  0  0
    3.3250  -12.0380  -24.1940 C   0  0  0  0  0  1  0  0  0  0  0  0
    1.6860  -10.3090  -24.6200 N   0  0  0  0  0  0  0  0  0  0  0  0
    2.2220   -9.4620  -24.5420 H   0  0  0  0  0  0  0  0  0  0  0  0
    0.2970  -10.2260  -24.7160 C   0  0  0  0  0  0  0  0  0  0  0  0
   -0.1970   -9.4200  -25.6700 N   0  0  0  0  0  0  0  0  0  0  0  0
   -1.4060   -8.9160  -25.4490 C   0  0  0  0  0  3  0  0  0  0  0  0
   -2.0790   -9.0440  -24.3090 N   0  0  0  0  0  0  0  0  0  0  0  0
   -1.5690   -9.8810  -23.3800 C   0  0  0  0  0  0  0  0  0  0  0  0
   -1.9880   -9.9050  -22.0480 C   0  0  0  0  0  0  0  0  0  0  0  0
   -1.8130  -11.0230  -21.2230 C   0  0  0  0  0  3  0  0  0  0  0  0
   -0.9220  -12.0010  -21.6180 C   0  0  0  0  0  3  0  0  0  0  0  0
   -0.1690  -11.7720  -22.7670 C   0  0  0  0  0  3  0  0  0  0  0  0
   -0.4760  -10.6870  -23.6400 C   0  0  0  0  0  0  0  0  0  0  0  0
   -1.8840   -8.5760  -21.3860 C   0  0  0  0  0  0  0  0  0  0  0  0
   -2.6710   -7.5660  -21.8840 N   0  0  0  0  0  0  0  0  0  0  0  0
   -1.2600   -8.3990  -20.3540 O   0  0  0  0  0  0  0  0  0  0  0  0
   -2.7410   -6.7230  -21.3300 H   0  0  0  0  0  0  0  0  0  0  0  0
   -3.3080   -7.6760  -22.6590 H   0  0  0  0  0  0  0  0  0  0  0  0
  1  6  1  0  0  0  0
  2  3  1  0  0  0  0
  2  1  2  0  0  0  0
  3  4  2  0  0  0  0
  4  5  1  0  0  0  0
  5 20  1  0  0  0  0
  6  5  2  0  0  0  0
  7 13  1  0  0  0  0
  7  9  1  0  0  0  0
  8  7  2  0  0  0  0
  9 10  1  0  0  0  0
  9  1  1  0  0  0  0
 11 18  1  0  0  0  0
 12 11  1  0  0  0  0
 13 12  2  0  0  0  0
 14 13  1  0  0  0  0
 14 15  1  0  0  0  0
 15 11  2  0  0  0  0
 16 14  1  0  0  0  0
 18 17  1  0  0  0  0
 19 18  1  0  0  0  0
 20 22  1  0  0  0  0
 20 21  1  1  0  0  0
 22 23  1  0  0  0  0
 24 22  1  0  0  0  0
 24 33  1  0  0  0  0
 25 26  1  0  0  0  0
 25 24  2  0  0  0  0
 26 27  2  0  0  0  0
 27 28  1  0  0  0  0
 28 29  1  0  0  0  0
 29 34  1  0  0  0  0
 29 30  2  0  0  0  0
 31 30  1  0  0  0  0
 32 31  2  0  0  0  0
 33 28  2  0  0  0  0
 33 32  1  0  0  0  0
 34 36  2  0  0  0  0
 35 34  1  0  0  0  0
 35 37  1  0  0  0  0
 38 35  1  0  0  0  0
M  END
>  <minimizedAffinity>
-5.42400551

$$$$
