REMARK  Name = 
REMARK  10 active torsions:
REMARK  status: ('A' for Active; 'I' for Inactive)
REMARK    1  A    between atoms: C_1  and  C_2
REMARK    2  A    between atoms: C_2  and  C_3
REMARK    3  A    between atoms: C_2  and  C_4
REMARK    4  A    between atoms: C_6  and  C_7
REMARK    5  A    between atoms: N_9  and  C_10
REMARK    6  A    between atoms: C_14  and  C_15
REMARK    7  A    between atoms: C_15  and  C_16
REMARK    8  A    between atoms: C_15  and  N_17
REMARK    9  A    between atoms: N_17  and  C_18
REMARK   10  A    between atoms: C_23  and  C_24
REMARK                            x       y       z     vdW  Elec       q    Type
REMARK                         _______ _______ _______ _____ _____    ______ ____
ROOT
ATOM      1  C   UNL     1      -2.131  -3.930  -0.748  0.00  0.00    +0.034 A 
ATOM      2  C   UNL     1      -1.794  -5.073  -1.479  0.00  0.00    +0.023 A 
ATOM      3  C   UNL     1      -0.632  -5.784  -1.192  0.00  0.00    +0.002 A 
ATOM      4  C   UNL     1       0.166  -5.406  -0.113  0.00  0.00    +0.005 A 
ATOM      5  C   UNL     1      -0.178  -4.300   0.684  0.00  0.00    -0.026 A 
ATOM      6  C   UNL     1      -1.307  -3.524   0.313  0.00  0.00    +0.028 A 
ENDROOT
BRANCH   1   9
ATOM      7  C   UNL     1      -3.946  -2.156  -0.733  0.00  0.00    +0.266 C 
ATOM      8  O   UNL     1      -5.132  -2.118  -0.399  0.00  0.00    -0.268 OA
ATOM      9  N   UNL     1      -3.396  -3.380  -1.013  0.00  0.00    -0.280 N 
ATOM     10  H   UNL     1      -4.103  -4.040  -1.315  0.00  0.00    +0.155 HD
BRANCH   7  13
ATOM     11  C   UNL     1      -2.033   0.755  -1.864  0.00  0.00    +0.066 A 
ATOM     12  C   UNL     1      -2.031  -0.655  -1.666  0.00  0.00    +0.057 A 
ATOM     13  C   UNL     1      -3.233  -0.947  -1.052  0.00  0.00    +0.121 A 
ATOM     14  N   UNL     1      -3.833   0.272  -0.877  0.00  0.00    -0.272 N 
ATOM     15  N   UNL     1      -3.142   1.311  -1.362  0.00  0.00    -0.178 NA
ATOM     16  H   UNL     1      -4.751   0.443  -0.479  0.00  0.00    +0.189 HD
BRANCH  11  18
ATOM     17  C   UNL     1       0.101   1.992  -1.491  0.00  0.00    +0.014 C 
ATOM     18  C   UNL     1      -0.991   1.632  -2.505  0.00  0.00    +0.033 C 
ATOM     19  C   UNL     1      -0.453   1.063  -3.824  0.00  0.00    +0.014 C 
ENDBRANCH  11  18
ENDBRANCH   7  13
ENDBRANCH   1   9
BRANCH   5  20
ATOM     20  C   UNL     1       0.539  -4.046   2.019  0.00  0.00    +0.099 C 
ATOM     21  C   UNL     1       0.215  -5.168   3.009  0.00  0.00    +0.033 C 
BRANCH  20  22
ATOM     22  N   UNL     1       1.994  -3.980   1.876  0.00  0.00    -0.322 N 
ATOM     23  H   UNL     1       2.498  -4.813   1.623  0.00  0.00    +0.148 HD
BRANCH  22  24
ATOM     24  C   UNL     1       2.531  -2.736   1.549  0.00  0.00    +0.130 A 
ATOM     25  N   UNL     1       1.976  -1.663   2.137  0.00  0.00    -0.220 NA
ATOM     26  C   UNL     1       2.074  -0.513   1.479  0.00  0.00    +0.223 A 
ATOM     27  N   UNL     1       2.551  -0.389   0.244  0.00  0.00    -0.235 NA
ATOM     28  C   UNL     1       3.126  -1.479  -0.309  0.00  0.00    +0.088 A 
ATOM     29  C   UNL     1       3.408  -1.596  -1.672  0.00  0.00    +0.063 A 
ATOM     30  C   UNL     1       4.377  -2.478  -2.168  0.00  0.00    +0.015 A 
ATOM     31  C   UNL     1       4.834  -3.487  -1.343  0.00  0.00    +0.002 A 
ATOM     32  C   UNL     1       4.230  -3.635  -0.097  0.00  0.00    +0.013 A 
ATOM     33  C   UNL     1       3.347  -2.638   0.412  0.00  0.00    +0.041 A 
BRANCH  29  34
ATOM     34  C   UNL     1       2.211  -1.384  -2.530  0.00  0.00    +0.244 C 
ATOM     35  N   UNL     1       1.896  -2.381  -3.421  0.00  0.00    -0.325 N 
ATOM     36  O   UNL     1       1.437  -0.456  -2.367  0.00  0.00    -0.270 OA
ATOM     37  H   UNL     1       0.991  -2.326  -3.870  0.00  0.00    +0.145 HD
ATOM     38  H   UNL     1       2.421  -3.237  -3.520  0.00  0.00    +0.145 HD
ENDBRANCH  29  34
ENDBRANCH  22  24
ENDBRANCH  20  22
ENDBRANCH   5  20
TORSDOF 7
