
 OpenBabel10152418323D

 36 39  0  0  0  0  0  0  0  0999 V2000
   -0.7510   -5.9450  -24.7860 C   0  0  0  0  0  2  0  0  0  0  0  0
   -1.5740  -11.0960  -21.5790 C   0  0  0  0  0  0  0  0  0  0  0  0
   -1.3180  -12.0390  -22.5890 C   0  0  0  0  0  3  0  0  0  0  0  0
   -1.0020  -11.6020  -23.8620 C   0  0  0  0  0  3  0  0  0  0  0  0
   -0.9350  -10.2350  -24.1100 C   0  0  0  0  0  3  0  0  0  0  0  0
   -1.1750   -9.2780  -23.0850 C   0  0  0  0  0  0  0  0  0  0  0  0
   -1.0920   -7.8810  -23.2700 C   0  0  0  0  0  0  0  0  0  0  0  0
   -0.7260   -7.3690  -24.5110 N   0  0  0  0  0  0  0  0  0  0  0  0
   -1.3780   -7.0140  -22.2870 N   0  0  0  0  0  0  0  0  0  0  0  0
   -1.6960   -7.5350  -21.1010 C   0  0  0  0  0  3  0  0  0  0  0  0
   -1.7510   -8.8350  -20.8020 N   0  0  0  0  0  0  0  0  0  0  0  0
   -1.5160   -9.7130  -21.7920 C   0  0  0  0  0  0  0  0  0  0  0  0
    0.0070   -7.8840  -24.9820 H   0  0  0  0  0  0  0  0  0  0  0  0
   -0.8830  -11.9710  -19.4490 N   0  0  0  0  0  0  0  0  0  0  0  0
   -1.9360  -11.6220  -20.2490 C   0  0  0  0  0  0  0  0  0  0  0  0
   -3.0970  -11.7960  -19.9080 O   0  0  0  0  0  0  0  0  0  0  0  0
   -1.0980  -12.3390  -18.5310 H   0  0  0  0  0  0  0  0  0  0  0  0
    0.0810  -11.8160  -19.7010 H   0  0  0  0  0  0  0  0  0  0  0  0
   -0.2810   -5.7240  -26.2060 C   0  0  0  0  0  0  0  0  0  0  0  0
   -1.1950   -5.3980  -27.2140 C   0  0  0  0  0  3  0  0  0  0  0  0
   -0.7670   -5.2940  -28.5340 C   0  0  0  0  0  3  0  0  0  0  0  0
    0.5770   -5.4990  -28.8620 C   0  0  0  0  0  3  0  0  0  0  0  0
    1.5160   -5.7860  -27.8710 C   0  0  0  0  0  0  0  0  0  0  0  0
    1.0680   -5.9200  -26.5480 C   0  0  0  0  0  3  0  0  0  0  0  0
    2.8920   -5.9930  -28.0840 N   0  0  0  0  0  0  0  0  0  0  0  0
    3.7680   -6.9970  -27.7520 C   0  0  0  0  0  0  0  0  0  0  0  0
    4.9740   -6.8520  -27.9510 O   0  0  0  0  0  0  0  0  0  0  0  0
    3.3750   -5.2600  -28.5930 H   0  0  0  0  0  0  0  0  0  0  0  0
    3.3320   -8.2600  -27.1510 C   0  0  0  0  0  0  0  0  0  0  0  0
    2.7940   -8.2030  -25.8560 C   0  0  0  0  0  3  0  0  0  0  0  0
    2.3710   -9.3750  -25.2300 C   0  0  0  0  0  3  0  0  0  0  0  0
    2.5040  -10.5970  -25.8880 C   0  0  0  0  0  0  0  0  0  0  0  0
    1.9660  -12.0380  -25.1190 Cl  0  0  0  0  0  0  0  0  0  0  0  0
    3.0690  -10.6630  -27.1630 C   0  0  0  0  0  3  0  0  0  0  0  0
    3.4980   -9.4920  -27.7940 C   0  0  0  0  0  0  0  0  0  0  0  0
    4.2190   -9.6320  -29.3550 Cl  0  0  0  0  0  0  0  0  0  0  0  0
  1  8  1  0  0  0  0
  2 15  1  0  0  0  0
  3  2  2  0  0  0  0
  4  3  1  0  0  0  0
  5  4  2  0  0  0  0
  5  6  1  0  0  0  0
  6 12  1  0  0  0  0
  7  6  2  0  0  0  0
  7  9  1  0  0  0  0
  8  7  1  0  0  0  0
  9 10  2  0  0  0  0
 10 11  1  0  0  0  0
 12  2  1  0  0  0  0
 12 11  2  0  0  0  0
 13  8  1  0  0  0  0
 14 17  1  0  0  0  0
 15 16  2  0  0  0  0
 15 14  1  0  0  0  0
 18 14  1  0  0  0  0
 19  1  1  0  0  0  0
 20 19  2  0  0  0  0
 21 20  1  0  0  0  0
 22 21  2  0  0  0  0
 22 23  1  0  0  0  0
 23 24  2  0  0  0  0
 24 19  1  0  0  0  0
 25 23  1  0  0  0  0
 25 26  1  0  0  0  0
 26 29  1  0  0  0  0
 27 26  2  0  0  0  0
 28 25  1  0  0  0  0
 29 30  1  0  0  0  0
 30 31  2  0  0  0  0
 32 31  1  0  0  0  0
 32 33  1  0  0  0  0
 34 32  2  0  0  0  0
 35 34  1  0  0  0  0
 35 29  2  0  0  0  0
 36 35  1  0  0  0  0
M  END
>  <minimizedAffinity>
-8.52664375

$$$$

 OpenBabel10152418323D

 36 39  0  0  0  0  0  0  0  0999 V2000
    0.4850   -5.9150  -24.6270 C   0  0  0  0  0  2  0  0  0  0  0  0
    4.0840   -8.1100  -29.0690 C   0  0  0  0  0  0  0  0  0  0  0  0
    4.8560   -9.0090  -28.3150 C   0  0  0  0  0  3  0  0  0  0  0  0
    4.6280   -9.1290  -26.9560 C   0  0  0  0  0  3  0  0  0  0  0  0
    3.6280   -8.3600  -26.3690 C   0  0  0  0  0  3  0  0  0  0  0  0
    2.8320   -7.4620  -27.1330 C   0  0  0  0  0  0  0  0  0  0  0  0
    1.7850   -6.6800  -26.5980 C   0  0  0  0  0  0  0  0  0  0  0  0
    1.4630   -6.7880  -25.2490 N   0  0  0  0  0  0  0  0  0  0  0  0
    1.0940   -5.8070  -27.3470 N   0  0  0  0  0  0  0  0  0  0  0  0
    1.4060   -5.7490  -28.6420 C   0  0  0  0  0  3  0  0  0  0  0  0
    2.3360   -6.4790  -29.2610 N   0  0  0  0  0  0  0  0  0  0  0  0
    3.0690   -7.3200  -28.5110 C   0  0  0  0  0  0  0  0  0  0  0  0
    1.4930   -7.7300  -24.8800 H   0  0  0  0  0  0  0  0  0  0  0  0
    4.9720   -6.8260  -30.8970 N   0  0  0  0  0  0  0  0  0  0  0  0
    4.3940   -8.0030  -30.5070 C   0  0  0  0  0  0  0  0  0  0  0  0
    4.0970   -8.8780  -31.3070 O   0  0  0  0  0  0  0  0  0  0  0  0
    5.1930   -6.7190  -31.8780 H   0  0  0  0  0  0  0  0  0  0  0  0
    5.2440   -6.1000  -30.2510 H   0  0  0  0  0  0  0  0  0  0  0  0
   -0.5570   -6.7750  -23.9460 C   0  0  0  0  0  0  0  0  0  0  0  0
   -0.9610   -6.4960  -22.6350 C   0  0  0  0  0  3  0  0  0  0  0  0
   -1.8450   -7.3490  -21.9820 C   0  0  0  0  0  3  0  0  0  0  0  0
   -2.3480   -8.4810  -22.6340 C   0  0  0  0  0  3  0  0  0  0  0  0
   -1.9930   -8.7600  -23.9530 C   0  0  0  0  0  0  0  0  0  0  0  0
   -1.0760   -7.9100  -24.5900 C   0  0  0  0  0  3  0  0  0  0  0  0
   -2.4510   -9.8560  -24.7080 N   0  0  0  0  0  0  0  0  0  0  0  0
   -1.8310  -10.9140  -25.3270 C   0  0  0  0  0  0  0  0  0  0  0  0
   -2.4790  -11.6710  -26.0490 O   0  0  0  0  0  0  0  0  0  0  0  0
   -3.4550   -9.9100  -24.8440 H   0  0  0  0  0  0  0  0  0  0  0  0
   -0.4000  -11.1910  -25.1730 C   0  0  0  0  0  0  0  0  0  0  0  0
    0.4020  -11.0830  -26.3190 C   0  0  0  0  0  3  0  0  0  0  0  0
    1.7690  -11.3450  -26.2350 C   0  0  0  0  0  3  0  0  0  0  0  0
    2.3250  -11.7310  -25.0150 C   0  0  0  0  0  0  0  0  0  0  0  0
    4.0150  -12.0370  -24.9120 Cl  0  0  0  0  0  0  0  0  0  0  0  0
    1.5260  -11.8720  -23.8790 C   0  0  0  0  0  3  0  0  0  0  0  0
    0.1540  -11.6140  -23.9590 C   0  0  0  0  0  0  0  0  0  0  0  0
   -0.7950  -11.8350  -22.5350 Cl  0  0  0  0  0  0  0  0  0  0  0  0
  1 19  1  0  0  0  0
  2 12  2  0  0  0  0
  2  3  1  0  0  0  0
  3  4  2  0  0  0  0
  4  5  1  0  0  0  0
  6  7  1  0  0  0  0
  6  5  2  0  0  0  0
  7  8  1  0  0  0  0
  8 13  1  0  0  0  0
  8  1  1  0  0  0  0
  9  7  2  0  0  0  0
 10  9  1  0  0  0  0
 11 10  2  0  0  0  0
 11 12  1  0  0  0  0
 12  6  1  0  0  0  0
 14 15  1  0  0  0  0
 14 18  1  0  0  0  0
 15  2  1  0  0  0  0
 16 15  2  0  0  0  0
 17 14  1  0  0  0  0
 19 20  1  0  0  0  0
 20 21  2  0  0  0  0
 22 21  1  0  0  0  0
 23 22  2  0  0  0  0
 24 23  1  0  0  0  0
 24 19  2  0  0  0  0
 25 23  1  0  0  0  0
 26 29  1  0  0  0  0
 26 25  1  0  0  0  0
 27 26  2  0  0  0  0
 28 25  1  0  0  0  0
 29 35  1  0  0  0  0
 30 31  1  0  0  0  0
 30 29  2  0  0  0  0
 31 32  2  0  0  0  0
 32 33  1  0  0  0  0
 32 34  1  0  0  0  0
 35 34  2  0  0  0  0
 35 36  1  0  0  0  0
M  END
>  <minimizedAffinity>
-8.3788023

$$$$

 OpenBabel10152418323D

 36 39  0  0  0  0  0  0  0  0999 V2000
   -1.3970   -6.7230  -27.1380 C   0  0  0  0  0  2  0  0  0  0  0  0
   -1.5320   -9.8120  -21.8520 C   0  0  0  0  0  0  0  0  0  0  0  0
   -1.5300   -8.7310  -20.9550 C   0  0  0  0  0  3  0  0  0  0  0  0
   -1.4940   -7.4390  -21.4460 C   0  0  0  0  0  3  0  0  0  0  0  0
   -1.4710   -7.2410  -22.8230 C   0  0  0  0  0  3  0  0  0  0  0  0
   -1.4910   -8.3320  -23.7340 C   0  0  0  0  0  0  0  0  0  0  0  0
   -1.4990   -8.1910  -25.1390 C   0  0  0  0  0  0  0  0  0  0  0  0
   -1.5170   -6.9210  -25.7060 N   0  0  0  0  0  0  0  0  0  0  0  0
   -1.4650   -9.2510  -25.9610 N   0  0  0  0  0  0  0  0  0  0  0  0
   -1.4780  -10.4560  -25.3890 C   0  0  0  0  0  3  0  0  0  0  0  0
   -1.5260  -10.7030  -24.0780 N   0  0  0  0  0  0  0  0  0  0  0  0
   -1.5090   -9.6490  -23.2440 C   0  0  0  0  0  0  0  0  0  0  0  0
   -2.1100   -6.2530  -25.2290 H   0  0  0  0  0  0  0  0  0  0  0  0
   -2.5290  -11.4060  -20.3540 N   0  0  0  0  0  0  0  0  0  0  0  0
   -1.5400  -11.1660  -21.2690 C   0  0  0  0  0  0  0  0  0  0  0  0
   -0.6840  -11.9980  -21.5340 O   0  0  0  0  0  0  0  0  0  0  0  0
   -2.5590  -12.3250  -19.9320 H   0  0  0  0  0  0  0  0  0  0  0  0
   -3.2560  -10.7420  -20.1360 H   0  0  0  0  0  0  0  0  0  0  0  0
   -0.1730   -5.8730  -27.4010 C   0  0  0  0  0  0  0  0  0  0  0  0
   -0.2240   -4.4850  -27.2350 C   0  0  0  0  0  3  0  0  0  0  0  0
    0.8760   -3.7020  -27.5750 C   0  0  0  0  0  3  0  0  0  0  0  0
    2.0420   -4.2970  -28.0690 C   0  0  0  0  0  3  0  0  0  0  0  0
    2.1330   -5.6810  -28.2070 C   0  0  0  0  0  0  0  0  0  0  0  0
    1.0070   -6.4570  -27.8920 C   0  0  0  0  0  3  0  0  0  0  0  0
    3.2590   -6.3840  -28.6760 N   0  0  0  0  0  0  0  0  0  0  0  0
    3.8930   -7.5380  -28.2860 C   0  0  0  0  0  0  0  0  0  0  0  0
    4.9630   -7.8580  -28.8040 O   0  0  0  0  0  0  0  0  0  0  0  0
    3.7300   -5.9790  -29.4780 H   0  0  0  0  0  0  0  0  0  0  0  0
    3.3510   -8.4280  -27.2550 C   0  0  0  0  0  0  0  0  0  0  0  0
    2.9440   -7.8380  -26.0490 C   0  0  0  0  0  3  0  0  0  0  0  0
    2.4300   -8.6370  -25.0270 C   0  0  0  0  0  3  0  0  0  0  0  0
    2.3430  -10.0170  -25.2060 C   0  0  0  0  0  0  0  0  0  0  0  0
    1.6930  -10.9960  -23.9500 Cl  0  0  0  0  0  0  0  0  0  0  0  0
    2.7790  -10.6110  -26.3910 C   0  0  0  0  0  3  0  0  0  0  0  0
    3.2980   -9.8170  -27.4170 C   0  0  0  0  0  0  0  0  0  0  0  0
    3.8520  -10.6040  -28.8490 Cl  0  0  0  0  0  0  0  0  0  0  0  0
  1  8  1  0  0  0  0
  2 15  1  0  0  0  0
  2  3  1  0  0  0  0
  4  3  2  0  0  0  0
  5  4  1  0  0  0  0
  6 12  1  0  0  0  0
  6  5  2  0  0  0  0
  7  6  1  0  0  0  0
  8 13  1  0  0  0  0
  8  7  1  0  0  0  0
  9 10  1  0  0  0  0
  9  7  2  0  0  0  0
 10 11  2  0  0  0  0
 11 12  1  0  0  0  0
 12  2  2  0  0  0  0
 14 18  1  0  0  0  0
 14 17  1  0  0  0  0
 15 14  1  0  0  0  0
 16 15  2  0  0  0  0
 19 20  1  0  0  0  0
 19  1  1  0  0  0  0
 21 20  2  0  0  0  0
 22 21  1  0  0  0  0
 23 22  2  0  0  0  0
 23 24  1  0  0  0  0
 24 19  2  0  0  0  0
 25 26  1  0  0  0  0
 25 23  1  0  0  0  0
 26 29  1  0  0  0  0
 27 26  2  0  0  0  0
 28 25  1  0  0  0  0
 29 30  1  0  0  0  0
 30 31  2  0  0  0  0
 32 31  1  0  0  0  0
 32 33  1  0  0  0  0
 34 32  2  0  0  0  0
 35 29  2  0  0  0  0
 35 34  1  0  0  0  0
 36 35  1  0  0  0  0
M  END
>  <minimizedAffinity>
-7.83240509

$$$$

 OpenBabel10152418323D

 36 39  0  0  0  0  0  0  0  0999 V2000
    1.5350  -10.8760  -23.8350 C   0  0  0  0  0  2  0  0  0  0  0  0
    4.3670   -9.4500  -29.0740 C   0  0  0  0  0  0  0  0  0  0  0  0
    4.9680   -8.2400  -28.6880 C   0  0  0  0  0  3  0  0  0  0  0  0
    4.7740   -7.7630  -27.4050 C   0  0  0  0  0  3  0  0  0  0  0  0
    3.9930   -8.5010  -26.5210 C   0  0  0  0  0  3  0  0  0  0  0  0
    3.3980   -9.7360  -26.9030 C   0  0  0  0  0  0  0  0  0  0  0  0
    2.6220  -10.5410  -26.0420 C   0  0  0  0  0  0  0  0  0  0  0  0
    2.4270  -10.1520  -24.7210 N   0  0  0  0  0  0  0  0  0  0  0  0
    2.0360  -11.6730  -26.4610 N   0  0  0  0  0  0  0  0  0  0  0  0
    2.2650  -12.0360  -27.7240 C   0  0  0  0  0  3  0  0  0  0  0  0
    3.0240  -11.3800  -28.6050 N   0  0  0  0  0  0  0  0  0  0  0  0
    3.5740  -10.2190  -28.2110 C   0  0  0  0  0  0  0  0  0  0  0  0
    3.2420   -9.7500  -24.2740 H   0  0  0  0  0  0  0  0  0  0  0  0
    4.9740  -11.1950  -30.6120 N   0  0  0  0  0  0  0  0  0  0  0  0
    4.5850   -9.8920  -30.4640 C   0  0  0  0  0  0  0  0  0  0  0  0
    4.4880   -9.1300  -31.4160 O   0  0  0  0  0  0  0  0  0  0  0  0
    5.1360  -11.5280  -31.5530 H   0  0  0  0  0  0  0  0  0  0  0  0
    5.0390  -11.8450  -29.8440 H   0  0  0  0  0  0  0  0  0  0  0  0
    0.1760  -10.2140  -23.8800 C   0  0  0  0  0  0  0  0  0  0  0  0
   -0.9490  -10.9310  -24.3020 C   0  0  0  0  0  3  0  0  0  0  0  0
   -2.1760  -10.2870  -24.4340 C   0  0  0  0  0  3  0  0  0  0  0  0
   -2.2970   -8.9260  -24.1320 C   0  0  0  0  0  3  0  0  0  0  0  0
   -1.2010   -8.1980  -23.6720 C   0  0  0  0  0  0  0  0  0  0  0  0
    0.0380   -8.8500  -23.5730 C   0  0  0  0  0  3  0  0  0  0  0  0
   -1.2130   -6.8340  -23.3230 N   0  0  0  0  0  0  0  0  0  0  0  0
   -0.7050   -5.6970  -23.9030 C   0  0  0  0  0  0  0  0  0  0  0  0
   -0.7490   -4.6260  -23.2980 O   0  0  0  0  0  0  0  0  0  0  0  0
   -1.6950   -6.6030  -22.4610 H   0  0  0  0  0  0  0  0  0  0  0  0
   -0.0940   -5.6940  -25.2350 C   0  0  0  0  0  0  0  0  0  0  0  0
    0.7300   -6.7800  -25.5650 C   0  0  0  0  0  3  0  0  0  0  0  0
    1.3470   -6.8260  -26.8150 C   0  0  0  0  0  3  0  0  0  0  0  0
    1.1540   -5.7820  -27.7190 C   0  0  0  0  0  0  0  0  0  0  0  0
    1.9040   -5.8500  -29.2660 Cl  0  0  0  0  0  0  0  0  0  0  0  0
    0.3620   -4.6830  -27.3830 C   0  0  0  0  0  3  0  0  0  0  0  0
   -0.2550   -4.6300  -26.1300 C   0  0  0  0  0  0  0  0  0  0  0  0
   -1.1980   -3.2350  -25.7510 Cl  0  0  0  0  0  0  0  0  0  0  0  0
  2  3  2  0  0  0  0
  2 12  1  0  0  0  0
  3  4  1  0  0  0  0
  4  5  2  0  0  0  0
  6  5  1  0  0  0  0
  6  7  1  0  0  0  0
  7  8  1  0  0  0  0
  8 13  1  0  0  0  0
  8  1  1  0  0  0  0
  9  7  2  0  0  0  0
 10  9  1  0  0  0  0
 11 12  1  0  0  0  0
 11 10  2  0  0  0  0
 12  6  2  0  0  0  0
 14 15  1  0  0  0  0
 14 18  1  0  0  0  0
 15  2  1  0  0  0  0
 16 15  2  0  0  0  0
 17 14  1  0  0  0  0
 19  1  1  0  0  0  0
 19 24  1  0  0  0  0
 20 19  2  0  0  0  0
 21 20  1  0  0  0  0
 21 22  2  0  0  0  0
 22 23  1  0  0  0  0
 23 24  2  0  0  0  0
 23 25  1  0  0  0  0
 25 28  1  0  0  0  0
 26 25  1  0  0  0  0
 26 27  2  0  0  0  0
 29 26  1  0  0  0  0
 30 29  1  0  0  0  0
 31 30  2  0  0  0  0
 32 34  2  0  0  0  0
 32 31  1  0  0  0  0
 33 32  1  0  0  0  0
 34 35  1  0  0  0  0
 35 36  1  0  0  0  0
 35 29  2  0  0  0  0
M  END
>  <minimizedAffinity>
-7.76837349

$$$$

 OpenBabel10152418323D

 36 39  0  0  0  0  0  0  0  0999 V2000
   -1.6320   -5.9610  -26.5300 C   0  0  0  0  0  2  0  0  0  0  0  0
   -1.0340  -11.1840  -23.3890 C   0  0  0  0  0  0  0  0  0  0  0  0
   -0.6510  -12.0390  -24.4360 C   0  0  0  0  0  3  0  0  0  0  0  0
   -0.5390  -11.5350  -25.7190 C   0  0  0  0  0  3  0  0  0  0  0  0
   -0.7980  -10.1860  -25.9400 C   0  0  0  0  0  3  0  0  0  0  0  0
   -1.1680   -9.3140  -24.8790 C   0  0  0  0  0  0  0  0  0  0  0  0
   -1.4130   -7.9330  -25.0380 C   0  0  0  0  0  0  0  0  0  0  0  0
   -1.2680   -7.3450  -26.2900 N   0  0  0  0  0  0  0  0  0  0  0  0
   -1.8110   -7.1580  -24.0170 N   0  0  0  0  0  0  0  0  0  0  0  0
   -1.9120   -7.7440  -22.8220 C   0  0  0  0  0  3  0  0  0  0  0  0
   -1.6520   -9.0250  -22.5500 N   0  0  0  0  0  0  0  0  0  0  0  0
   -1.3030   -9.8210  -23.5750 C   0  0  0  0  0  0  0  0  0  0  0  0
   -0.4760   -7.6790  -26.8250 H   0  0  0  0  0  0  0  0  0  0  0  0
   -2.4510  -11.9720  -21.6140 N   0  0  0  0  0  0  0  0  0  0  0  0
   -1.1670  -11.7850  -22.0480 C   0  0  0  0  0  0  0  0  0  0  0  0
   -0.1990  -12.0390  -21.3460 O   0  0  0  0  0  0  0  0  0  0  0  0
   -2.5760  -12.3790  -20.6960 H   0  0  0  0  0  0  0  0  0  0  0  0
   -3.2620  -11.7900  -22.1850 H   0  0  0  0  0  0  0  0  0  0  0  0
   -0.4300   -5.2440  -27.1040 C   0  0  0  0  0  0  0  0  0  0  0  0
   -0.2870   -3.8600  -26.9460 C   0  0  0  0  0  3  0  0  0  0  0  0
    0.7690   -3.1950  -27.5610 C   0  0  0  0  0  3  0  0  0  0  0  0
    1.7010   -3.9030  -28.3270 C   0  0  0  0  0  3  0  0  0  0  0  0
    1.6050   -5.2860  -28.4690 C   0  0  0  0  0  0  0  0  0  0  0  0
    0.5180   -5.9430  -27.8700 C   0  0  0  0  0  3  0  0  0  0  0  0
    2.4930   -6.0980  -29.1980 N   0  0  0  0  0  0  0  0  0  0  0  0
    3.1720   -7.2600  -28.9200 C   0  0  0  0  0  0  0  0  0  0  0  0
    4.0070   -7.6900  -29.7150 O   0  0  0  0  0  0  0  0  0  0  0  0
    2.7000   -5.7890  -30.1430 H   0  0  0  0  0  0  0  0  0  0  0  0
    2.9530   -8.0280  -27.6910 C   0  0  0  0  0  0  0  0  0  0  0  0
    2.5110   -7.3210  -26.5630 C   0  0  0  0  0  3  0  0  0  0  0  0
    2.2950   -7.9990  -25.3630 C   0  0  0  0  0  3  0  0  0  0  0  0
    2.5390   -9.3700  -25.2900 C   0  0  0  0  0  0  0  0  0  0  0  0
    2.2560  -10.2040  -23.8120 Cl  0  0  0  0  0  0  0  0  0  0  0  0
    3.0100  -10.0710  -26.4010 C   0  0  0  0  0  3  0  0  0  0  0  0
    3.2320   -9.3970  -27.6050 C   0  0  0  0  0  0  0  0  0  0  0  0
    3.8460  -10.3030  -28.9390 Cl  0  0  0  0  0  0  0  0  0  0  0  0
  1  8  1  0  0  0  0
  2 15  1  0  0  0  0
  3  2  2  0  0  0  0
  4  3  1  0  0  0  0
  5  4  2  0  0  0  0
  5  6  1  0  0  0  0
  6 12  1  0  0  0  0
  7  6  2  0  0  0  0
  7  9  1  0  0  0  0
  8  7  1  0  0  0  0
  9 10  2  0  0  0  0
 10 11  1  0  0  0  0
 12  2  1  0  0  0  0
 12 11  2  0  0  0  0
 13  8  1  0  0  0  0
 14 17  1  0  0  0  0
 15 14  1  0  0  0  0
 15 16  2  0  0  0  0
 18 14  1  0  0  0  0
 19 20  1  0  0  0  0
 19  1  1  0  0  0  0
 21 20  2  0  0  0  0
 22 21  1  0  0  0  0
 23 22  2  0  0  0  0
 23 24  1  0  0  0  0
 24 19  2  0  0  0  0
 25 26  1  0  0  0  0
 25 23  1  0  0  0  0
 26 29  1  0  0  0  0
 27 26  2  0  0  0  0
 28 25  1  0  0  0  0
 29 35  2  0  0  0  0
 29 30  1  0  0  0  0
 30 31  2  0  0  0  0
 31 32  1  0  0  0  0
 32 33  1  0  0  0  0
 34 32  2  0  0  0  0
 35 34  1  0  0  0  0
 36 35  1  0  0  0  0
M  END
>  <minimizedAffinity>
-7.48036432

$$$$

 OpenBabel10152418323D

 36 39  0  0  0  0  0  0  0  0999 V2000
    3.0990   -6.7630  -29.8600 C   0  0  0  0  0  2  0  0  0  0  0  0
   -0.6890   -4.1040  -25.8490 C   0  0  0  0  0  0  0  0  0  0  0  0
   -1.0070   -5.2210  -25.0590 C   0  0  0  0  0  3  0  0  0  0  0  0
   -0.4580   -6.4530  -25.3680 C   0  0  0  0  0  3  0  0  0  0  0  0
    0.4080   -6.5520  -26.4530 C   0  0  0  0  0  3  0  0  0  0  0  0
    0.7470   -5.4190  -27.2440 C   0  0  0  0  0  0  0  0  0  0  0  0
    1.6410   -5.4540  -28.3360 C   0  0  0  0  0  0  0  0  0  0  0  0
    2.2740   -6.6460  -28.6730 N   0  0  0  0  0  0  0  0  0  0  0  0
    1.8910   -4.3710  -29.0870 N   0  0  0  0  0  0  0  0  0  0  0  0
    1.2930   -3.2360  -28.7210 C   0  0  0  0  0  3  0  0  0  0  0  0
    0.4750   -3.0780  -27.6770 N   0  0  0  0  0  0  0  0  0  0  0  0
    0.1780   -4.1680  -26.9490 C   0  0  0  0  0  0  0  0  0  0  0  0
    2.5770   -7.2020  -27.8830 H   0  0  0  0  0  0  0  0  0  0  0  0
   -1.3400   -1.8760  -26.4750 N   0  0  0  0  0  0  0  0  0  0  0  0
   -1.3300   -2.8260  -25.4900 C   0  0  0  0  0  0  0  0  0  0  0  0
   -1.7650   -2.6040  -24.3690 O   0  0  0  0  0  0  0  0  0  0  0  0
   -1.7690   -0.9860  -26.2590 H   0  0  0  0  0  0  0  0  0  0  0  0
   -1.0060   -2.0450  -27.4120 H   0  0  0  0  0  0  0  0  0  0  0  0
    3.5480   -8.2010  -29.9910 C   0  0  0  0  0  0  0  0  0  0  0  0
    3.4800   -8.8560  -31.2260 C   0  0  0  0  0  3  0  0  0  0  0  0
    3.8020  -10.2070  -31.3160 C   0  0  0  0  0  3  0  0  0  0  0  0
    4.2070  -10.9160  -30.1800 C   0  0  0  0  0  3  0  0  0  0  0  0
    4.3200  -10.2780  -28.9450 C   0  0  0  0  0  0  0  0  0  0  0  0
    3.9630   -8.9230  -28.8600 C   0  0  0  0  0  3  0  0  0  0  0  0
    4.7340  -10.8870  -27.7460 N   0  0  0  0  0  0  0  0  0  0  0  0
    4.1110  -11.1650  -26.5530 C   0  0  0  0  0  0  0  0  0  0  0  0
    4.7650  -11.5950  -25.6030 O   0  0  0  0  0  0  0  0  0  0  0  0
    5.6970  -11.2050  -27.7210 H   0  0  0  0  0  0  0  0  0  0  0  0
    2.6740  -10.9660  -26.3460 C   0  0  0  0  0  0  0  0  0  0  0  0
    1.8260  -12.0390  -26.6560 C   0  0  0  0  0  3  0  0  0  0  0  0
    0.4480  -11.9030  -26.4890 C   0  0  0  0  0  3  0  0  0  0  0  0
   -0.0760  -10.6950  -26.0320 C   0  0  0  0  0  0  0  0  0  0  0  0
   -1.7750  -10.5360  -25.8110 Cl  0  0  0  0  0  0  0  0  0  0  0  0
    0.7610   -9.6130  -25.7540 C   0  0  0  0  0  3  0  0  0  0  0  0
    2.1420   -9.7420  -25.9230 C   0  0  0  0  0  0  0  0  0  0  0  0
    3.1300   -8.3650  -25.5970 Cl  0  0  0  0  0  0  0  0  0  0  0  0
  1  8  1  0  0  0  0
  2 15  1  0  0  0  0
  2  3  1  0  0  0  0
  4  3  2  0  0  0  0
  5  4  1  0  0  0  0
  6 12  1  0  0  0  0
  6  5  2  0  0  0  0
  7  6  1  0  0  0  0
  8  7  1  0  0  0  0
  8 13  1  0  0  0  0
  9 10  1  0  0  0  0
  9  7  2  0  0  0  0
 10 11  2  0  0  0  0
 11 12  1  0  0  0  0
 12  2  2  0  0  0  0
 14 17  1  0  0  0  0
 14 15  1  0  0  0  0
 15 16  2  0  0  0  0
 18 14  1  0  0  0  0
 19  1  1  0  0  0  0
 19 24  1  0  0  0  0
 20 19  2  0  0  0  0
 21 20  1  0  0  0  0
 21 22  2  0  0  0  0
 22 23  1  0  0  0  0
 23 24  2  0  0  0  0
 23 25  1  0  0  0  0
 25 28  1  0  0  0  0
 25 26  1  0  0  0  0
 26 29  1  0  0  0  0
 26 27  2  0  0  0  0
 29 35  1  0  0  0  0
 30 31  1  0  0  0  0
 30 29  2  0  0  0  0
 31 32  2  0  0  0  0
 32 33  1  0  0  0  0
 32 34  1  0  0  0  0
 35 34  2  0  0  0  0
 35 36  1  0  0  0  0
M  END
>  <minimizedAffinity>
-6.98251152

$$$$

 OpenBabel10152418323D

 36 39  0  0  0  0  0  0  0  0999 V2000
    4.4130   -9.4140  -26.7380 C   0  0  0  0  0  2  0  0  0  0  0  0
   -0.6410   -9.9230  -23.3180 C   0  0  0  0  0  0  0  0  0  0  0  0
   -0.9190  -11.2850  -23.5200 C   0  0  0  0  0  3  0  0  0  0  0  0
   -0.0900  -12.0350  -24.3350 C   0  0  0  0  0  3  0  0  0  0  0  0
    1.0090  -11.4210  -24.9280 C   0  0  0  0  0  3  0  0  0  0  0  0
    1.3030  -10.0460  -24.7100 C   0  0  0  0  0  0  0  0  0  0  0  0
    2.4190   -9.3780  -25.2610 C   0  0  0  0  0  0  0  0  0  0  0  0
    3.3260  -10.0810  -26.0470 N   0  0  0  0  0  0  0  0  0  0  0  0
    2.6280   -8.0670  -25.0710 N   0  0  0  0  0  0  0  0  0  0  0  0
    1.7580   -7.4270  -24.2880 C   0  0  0  0  0  3  0  0  0  0  0  0
    0.7040   -7.9700  -23.6750 N   0  0  0  0  0  0  0  0  0  0  0  0
    0.4560   -9.2720  -23.8990 C   0  0  0  0  0  0  0  0  0  0  0  0
    3.5360  -11.0150  -25.7190 H   0  0  0  0  0  0  0  0  0  0  0  0
   -1.0020   -8.4560  -21.4480 N   0  0  0  0  0  0  0  0  0  0  0  0
   -1.5780   -9.1680  -22.4640 C   0  0  0  0  0  0  0  0  0  0  0  0
   -2.7900   -9.2250  -22.6130 O   0  0  0  0  0  0  0  0  0  0  0  0
   -1.6180   -7.9300  -20.8410 H   0  0  0  0  0  0  0  0  0  0  0  0
   -0.0050   -8.3770  -21.3200 H   0  0  0  0  0  0  0  0  0  0  0  0
    3.8720   -8.8180  -28.0180 C   0  0  0  0  0  0  0  0  0  0  0  0
    3.8210   -9.5810  -29.1900 C   0  0  0  0  0  3  0  0  0  0  0  0
    3.4140   -8.9950  -30.3850 C   0  0  0  0  0  3  0  0  0  0  0  0
    3.0410   -7.6470  -30.4220 C   0  0  0  0  0  3  0  0  0  0  0  0
    3.0460   -6.8740  -29.2610 C   0  0  0  0  0  0  0  0  0  0  0  0
    3.4880   -7.4680  -28.0680 C   0  0  0  0  0  3  0  0  0  0  0  0
    2.6750   -5.5200  -29.1800 N   0  0  0  0  0  0  0  0  0  0  0  0
    1.6230   -4.8520  -28.6010 C   0  0  0  0  0  0  0  0  0  0  0  0
    1.4720   -3.6470  -28.8040 O   0  0  0  0  0  0  0  0  0  0  0  0
    3.2990   -4.8620  -29.6350 H   0  0  0  0  0  0  0  0  0  0  0  0
    0.6420   -5.5170  -27.7390 C   0  0  0  0  0  0  0  0  0  0  0  0
    0.5450   -6.9130  -27.8360 C   0  0  0  0  0  3  0  0  0  0  0  0
   -0.3770   -7.6000  -27.0470 C   0  0  0  0  0  3  0  0  0  0  0  0
   -1.2090   -6.8910  -26.1810 C   0  0  0  0  0  0  0  0  0  0  0  0
   -2.3340   -7.7430  -25.1980 Cl  0  0  0  0  0  0  0  0  0  0  0  0
   -1.1390   -5.4990  -26.1050 C   0  0  0  0  0  3  0  0  0  0  0  0
   -0.2190   -4.8050  -26.8970 C   0  0  0  0  0  0  0  0  0  0  0  0
   -0.1960   -3.0830  -26.7890 Cl  0  0  0  0  0  0  0  0  0  0  0  0
  1  8  1  0  0  0  0
  2 15  1  0  0  0  0
  3  2  1  0  0  0  0
  4  3  2  0  0  0  0
  5  6  2  0  0  0  0
  5  4  1  0  0  0  0
  6 12  1  0  0  0  0
  7  9  2  0  0  0  0
  7  6  1  0  0  0  0
  8 13  1  0  0  0  0
  8  7  1  0  0  0  0
  9 10  1  0  0  0  0
 10 11  2  0  0  0  0
 12 11  1  0  0  0  0
 12  2  2  0  0  0  0
 14 18  1  0  0  0  0
 14 17  1  0  0  0  0
 15 14  1  0  0  0  0
 16 15  2  0  0  0  0
 19  1  1  0  0  0  0
 20 19  2  0  0  0  0
 21 20  1  0  0  0  0
 22 21  2  0  0  0  0
 22 23  1  0  0  0  0
 23 25  1  0  0  0  0
 23 24  2  0  0  0  0
 24 19  1  0  0  0  0
 25 26  1  0  0  0  0
 26 29  1  0  0  0  0
 27 26  2  0  0  0  0
 28 25  1  0  0  0  0
 29 35  1  0  0  0  0
 30 29  2  0  0  0  0
 30 31  1  0  0  0  0
 31 32  2  0  0  0  0
 32 34  1  0  0  0  0
 32 33  1  0  0  0  0
 35 36  1  0  0  0  0
 35 34  2  0  0  0  0
M  END
>  <minimizedAffinity>
-6.10599327

$$$$

 OpenBabel10152418323D

 36 39  0  0  0  0  0  0  0  0999 V2000
   -0.8510   -6.8130  -27.4090 C   0  0  0  0  0  2  0  0  0  0  0  0
   -1.5340  -10.0760  -22.2720 C   0  0  0  0  0  0  0  0  0  0  0  0
   -1.3060  -11.3640  -22.7860 C   0  0  0  0  0  3  0  0  0  0  0  0
   -1.0360  -11.5200  -24.1340 C   0  0  0  0  0  3  0  0  0  0  0  0
   -0.9860  -10.3930  -24.9480 C   0  0  0  0  0  3  0  0  0  0  0  0
   -1.1970   -9.0860  -24.4270 C   0  0  0  0  0  0  0  0  0  0  0  0
   -1.1280   -7.9060  -25.1980 C   0  0  0  0  0  0  0  0  0  0  0  0
   -0.8080   -7.9810  -26.5490 N   0  0  0  0  0  0  0  0  0  0  0  0
   -1.3870   -6.6980  -24.6740 N   0  0  0  0  0  0  0  0  0  0  0  0
   -1.6610   -6.6540  -23.3700 C   0  0  0  0  0  3  0  0  0  0  0  0
   -1.6980   -7.6990  -22.5390 N   0  0  0  0  0  0  0  0  0  0  0  0
   -1.4910   -8.9190  -23.0630 C   0  0  0  0  0  0  0  0  0  0  0  0
   -0.0880   -8.6550  -26.7770 H   0  0  0  0  0  0  0  0  0  0  0  0
   -1.2140   -8.9640  -20.1650 N   0  0  0  0  0  0  0  0  0  0  0  0
   -1.8480   -9.9750  -20.8350 C   0  0  0  0  0  0  0  0  0  0  0  0
   -2.5730  -10.7780  -20.2650 O   0  0  0  0  0  0  0  0  0  0  0  0
   -1.4050   -8.8700  -19.1760 H   0  0  0  0  0  0  0  0  0  0  0  0
   -0.6300   -8.2780  -20.6190 H   0  0  0  0  0  0  0  0  0  0  0  0
    0.5680   -6.4400  -27.7790 C   0  0  0  0  0  0  0  0  0  0  0  0
    1.0570   -5.1560  -27.5090 C   0  0  0  0  0  3  0  0  0  0  0  0
    2.3280   -4.7910  -27.9410 C   0  0  0  0  0  3  0  0  0  0  0  0
    3.1300   -5.7050  -28.6330 C   0  0  0  0  0  3  0  0  0  0  0  0
    2.6830   -7.0020  -28.8800 C   0  0  0  0  0  0  0  0  0  0  0  0
    1.3870   -7.3490  -28.4680 C   0  0  0  0  0  3  0  0  0  0  0  0
    3.4100   -8.0040  -29.5490 N   0  0  0  0  0  0  0  0  0  0  0  0
    3.8510   -9.2570  -29.1990 C   0  0  0  0  0  0  0  0  0  0  0  0
    4.5990   -9.8790  -29.9520 O   0  0  0  0  0  0  0  0  0  0  0  0
    3.6850   -7.7900  -30.5020 H   0  0  0  0  0  0  0  0  0  0  0  0
    3.4720   -9.9050  -27.9400 C   0  0  0  0  0  0  0  0  0  0  0  0
    2.8130  -11.1410  -28.0280 C   0  0  0  0  0  3  0  0  0  0  0  0
    2.4200  -11.7990  -26.8630 C   0  0  0  0  0  3  0  0  0  0  0  0
    2.6670  -11.2150  -25.6220 C   0  0  0  0  0  0  0  0  0  0  0  0
    2.1940  -12.0380  -24.1860 Cl  0  0  0  0  0  0  0  0  0  0  0  0
    3.2920   -9.9700  -25.5310 C   0  0  0  0  0  3  0  0  0  0  0  0
    3.6850   -9.3040  -26.6950 C   0  0  0  0  0  0  0  0  0  0  0  0
    4.4240   -7.7530  -26.5290 Cl  0  0  0  0  0  0  0  0  0  0  0  0
  1  8  1  0  0  0  0
  2 15  1  0  0  0  0
  3  2  1  0  0  0  0
  4  3  2  0  0  0  0
  5  6  2  0  0  0  0
  5  4  1  0  0  0  0
  6 12  1  0  0  0  0
  7  9  2  0  0  0  0
  7  6  1  0  0  0  0
  8  7  1  0  0  0  0
  9 10  1  0  0  0  0
 10 11  2  0  0  0  0
 12 11  1  0  0  0  0
 12  2  2  0  0  0  0
 13  8  1  0  0  0  0
 14 17  1  0  0  0  0
 15 16  2  0  0  0  0
 15 14  1  0  0  0  0
 18 14  1  0  0  0  0
 19 20  1  0  0  0  0
 19  1  1  0  0  0  0
 21 20  2  0  0  0  0
 22 21  1  0  0  0  0
 23 22  2  0  0  0  0
 23 24  1  0  0  0  0
 24 19  2  0  0  0  0
 25 26  1  0  0  0  0
 25 23  1  0  0  0  0
 26 29  1  0  0  0  0
 27 26  2  0  0  0  0
 28 25  1  0  0  0  0
 29 35  1  0  0  0  0
 30 29  2  0  0  0  0
 30 31  1  0  0  0  0
 31 32  2  0  0  0  0
 32 34  1  0  0  0  0
 32 33  1  0  0  0  0
 35 36  1  0  0  0  0
 35 34  2  0  0  0  0
M  END
>  <minimizedAffinity>
-5.69833899

$$$$
