
 OpenBabel10152418323D

 36 39  0  0  0  0  0  0  0  0999 V2000
   -1.3970   -6.7230  -27.1380 C   0  0  0  0  0  2  0  0  0  0  0  0
   -1.5320   -9.8120  -21.8520 C   0  0  0  0  0  0  0  0  0  0  0  0
   -1.5300   -8.7310  -20.9550 C   0  0  0  0  0  3  0  0  0  0  0  0
   -1.4940   -7.4390  -21.4460 C   0  0  0  0  0  3  0  0  0  0  0  0
   -1.4710   -7.2410  -22.8230 C   0  0  0  0  0  3  0  0  0  0  0  0
   -1.4910   -8.3320  -23.7340 C   0  0  0  0  0  0  0  0  0  0  0  0
   -1.4990   -8.1910  -25.1390 C   0  0  0  0  0  0  0  0  0  0  0  0
   -1.5170   -6.9210  -25.7060 N   0  0  0  0  0  0  0  0  0  0  0  0
   -1.4650   -9.2510  -25.9610 N   0  0  0  0  0  0  0  0  0  0  0  0
   -1.4780  -10.4560  -25.3890 C   0  0  0  0  0  3  0  0  0  0  0  0
   -1.5260  -10.7030  -24.0780 N   0  0  0  0  0  0  0  0  0  0  0  0
   -1.5090   -9.6490  -23.2440 C   0  0  0  0  0  0  0  0  0  0  0  0
   -2.1100   -6.2530  -25.2290 H   0  0  0  0  0  0  0  0  0  0  0  0
   -2.5290  -11.4060  -20.3540 N   0  0  0  0  0  0  0  0  0  0  0  0
   -1.5400  -11.1660  -21.2690 C   0  0  0  0  0  0  0  0  0  0  0  0
   -0.6840  -11.9980  -21.5340 O   0  0  0  0  0  0  0  0  0  0  0  0
   -2.5590  -12.3250  -19.9320 H   0  0  0  0  0  0  0  0  0  0  0  0
   -3.2560  -10.7420  -20.1360 H   0  0  0  0  0  0  0  0  0  0  0  0
   -0.1730   -5.8730  -27.4010 C   0  0  0  0  0  0  0  0  0  0  0  0
   -0.2240   -4.4850  -27.2350 C   0  0  0  0  0  3  0  0  0  0  0  0
    0.8760   -3.7020  -27.5750 C   0  0  0  0  0  3  0  0  0  0  0  0
    2.0420   -4.2970  -28.0690 C   0  0  0  0  0  3  0  0  0  0  0  0
    2.1330   -5.6810  -28.2070 C   0  0  0  0  0  0  0  0  0  0  0  0
    1.0070   -6.4570  -27.8920 C   0  0  0  0  0  3  0  0  0  0  0  0
    3.2590   -6.3840  -28.6760 N   0  0  0  0  0  0  0  0  0  0  0  0
    3.8930   -7.5380  -28.2860 C   0  0  0  0  0  0  0  0  0  0  0  0
    4.9630   -7.8580  -28.8040 O   0  0  0  0  0  0  0  0  0  0  0  0
    3.7300   -5.9790  -29.4780 H   0  0  0  0  0  0  0  0  0  0  0  0
    3.3510   -8.4280  -27.2550 C   0  0  0  0  0  0  0  0  0  0  0  0
    2.9440   -7.8380  -26.0490 C   0  0  0  0  0  3  0  0  0  0  0  0
    2.4300   -8.6370  -25.0270 C   0  0  0  0  0  3  0  0  0  0  0  0
    2.3430  -10.0170  -25.2060 C   0  0  0  0  0  0  0  0  0  0  0  0
    1.6930  -10.9960  -23.9500 Cl  0  0  0  0  0  0  0  0  0  0  0  0
    2.7790  -10.6110  -26.3910 C   0  0  0  0  0  3  0  0  0  0  0  0
    3.2980   -9.8170  -27.4170 C   0  0  0  0  0  0  0  0  0  0  0  0
    3.8520  -10.6040  -28.8490 Cl  0  0  0  0  0  0  0  0  0  0  0  0
  1  8  1  0  0  0  0
  2 15  1  0  0  0  0
  2  3  1  0  0  0  0
  4  3  2  0  0  0  0
  5  4  1  0  0  0  0
  6 12  1  0  0  0  0
  6  5  2  0  0  0  0
  7  6  1  0  0  0  0
  8 13  1  0  0  0  0
  8  7  1  0  0  0  0
  9 10  1  0  0  0  0
  9  7  2  0  0  0  0
 10 11  2  0  0  0  0
 11 12  1  0  0  0  0
 12  2  2  0  0  0  0
 14 18  1  0  0  0  0
 14 17  1  0  0  0  0
 15 14  1  0  0  0  0
 16 15  2  0  0  0  0
 19 20  1  0  0  0  0
 19  1  1  0  0  0  0
 21 20  2  0  0  0  0
 22 21  1  0  0  0  0
 23 22  2  0  0  0  0
 23 24  1  0  0  0  0
 24 19  2  0  0  0  0
 25 26  1  0  0  0  0
 25 23  1  0  0  0  0
 26 29  1  0  0  0  0
 27 26  2  0  0  0  0
 28 25  1  0  0  0  0
 29 30  1  0  0  0  0
 30 31  2  0  0  0  0
 32 31  1  0  0  0  0
 32 33  1  0  0  0  0
 34 32  2  0  0  0  0
 35 29  2  0  0  0  0
 35 34  1  0  0  0  0
 36 35  1  0  0  0  0
M  END
>  <minimizedAffinity>
-7.83240509

$$$$
