
 OpenBabel10152418323D

 36 39  0  0  0  0  0  0  0  0999 V2000
    0.4850   -5.9150  -24.6270 C   0  0  0  0  0  2  0  0  0  0  0  0
    4.0840   -8.1100  -29.0690 C   0  0  0  0  0  0  0  0  0  0  0  0
    4.8560   -9.0090  -28.3150 C   0  0  0  0  0  3  0  0  0  0  0  0
    4.6280   -9.1290  -26.9560 C   0  0  0  0  0  3  0  0  0  0  0  0
    3.6280   -8.3600  -26.3690 C   0  0  0  0  0  3  0  0  0  0  0  0
    2.8320   -7.4620  -27.1330 C   0  0  0  0  0  0  0  0  0  0  0  0
    1.7850   -6.6800  -26.5980 C   0  0  0  0  0  0  0  0  0  0  0  0
    1.4630   -6.7880  -25.2490 N   0  0  0  0  0  0  0  0  0  0  0  0
    1.0940   -5.8070  -27.3470 N   0  0  0  0  0  0  0  0  0  0  0  0
    1.4060   -5.7490  -28.6420 C   0  0  0  0  0  3  0  0  0  0  0  0
    2.3360   -6.4790  -29.2610 N   0  0  0  0  0  0  0  0  0  0  0  0
    3.0690   -7.3200  -28.5110 C   0  0  0  0  0  0  0  0  0  0  0  0
    1.4930   -7.7300  -24.8800 H   0  0  0  0  0  0  0  0  0  0  0  0
    4.9720   -6.8260  -30.8970 N   0  0  0  0  0  0  0  0  0  0  0  0
    4.3940   -8.0030  -30.5070 C   0  0  0  0  0  0  0  0  0  0  0  0
    4.0970   -8.8780  -31.3070 O   0  0  0  0  0  0  0  0  0  0  0  0
    5.1930   -6.7190  -31.8780 H   0  0  0  0  0  0  0  0  0  0  0  0
    5.2440   -6.1000  -30.2510 H   0  0  0  0  0  0  0  0  0  0  0  0
   -0.5570   -6.7750  -23.9460 C   0  0  0  0  0  0  0  0  0  0  0  0
   -0.9610   -6.4960  -22.6350 C   0  0  0  0  0  3  0  0  0  0  0  0
   -1.8450   -7.3490  -21.9820 C   0  0  0  0  0  3  0  0  0  0  0  0
   -2.3480   -8.4810  -22.6340 C   0  0  0  0  0  3  0  0  0  0  0  0
   -1.9930   -8.7600  -23.9530 C   0  0  0  0  0  0  0  0  0  0  0  0
   -1.0760   -7.9100  -24.5900 C   0  0  0  0  0  3  0  0  0  0  0  0
   -2.4510   -9.8560  -24.7080 N   0  0  0  0  0  0  0  0  0  0  0  0
   -1.8310  -10.9140  -25.3270 C   0  0  0  0  0  0  0  0  0  0  0  0
   -2.4790  -11.6710  -26.0490 O   0  0  0  0  0  0  0  0  0  0  0  0
   -3.4550   -9.9100  -24.8440 H   0  0  0  0  0  0  0  0  0  0  0  0
   -0.4000  -11.1910  -25.1730 C   0  0  0  0  0  0  0  0  0  0  0  0
    0.4020  -11.0830  -26.3190 C   0  0  0  0  0  3  0  0  0  0  0  0
    1.7690  -11.3450  -26.2350 C   0  0  0  0  0  3  0  0  0  0  0  0
    2.3250  -11.7310  -25.0150 C   0  0  0  0  0  0  0  0  0  0  0  0
    4.0150  -12.0370  -24.9120 Cl  0  0  0  0  0  0  0  0  0  0  0  0
    1.5260  -11.8720  -23.8790 C   0  0  0  0  0  3  0  0  0  0  0  0
    0.1540  -11.6140  -23.9590 C   0  0  0  0  0  0  0  0  0  0  0  0
   -0.7950  -11.8350  -22.5350 Cl  0  0  0  0  0  0  0  0  0  0  0  0
  1 19  1  0  0  0  0
  2 12  2  0  0  0  0
  2  3  1  0  0  0  0
  3  4  2  0  0  0  0
  4  5  1  0  0  0  0
  6  7  1  0  0  0  0
  6  5  2  0  0  0  0
  7  8  1  0  0  0  0
  8 13  1  0  0  0  0
  8  1  1  0  0  0  0
  9  7  2  0  0  0  0
 10  9  1  0  0  0  0
 11 10  2  0  0  0  0
 11 12  1  0  0  0  0
 12  6  1  0  0  0  0
 14 15  1  0  0  0  0
 14 18  1  0  0  0  0
 15  2  1  0  0  0  0
 16 15  2  0  0  0  0
 17 14  1  0  0  0  0
 19 20  1  0  0  0  0
 20 21  2  0  0  0  0
 22 21  1  0  0  0  0
 23 22  2  0  0  0  0
 24 23  1  0  0  0  0
 24 19  2  0  0  0  0
 25 23  1  0  0  0  0
 26 29  1  0  0  0  0
 26 25  1  0  0  0  0
 27 26  2  0  0  0  0
 28 25  1  0  0  0  0
 29 35  1  0  0  0  0
 30 31  1  0  0  0  0
 30 29  2  0  0  0  0
 31 32  2  0  0  0  0
 32 33  1  0  0  0  0
 32 34  1  0  0  0  0
 35 34  2  0  0  0  0
 35 36  1  0  0  0  0
M  END
>  <minimizedAffinity>
-8.3788023

$$$$
