
 OpenBabel10152418323D

 36 39  0  0  0  0  0  0  0  0999 V2000
    1.5350  -10.8760  -23.8350 C   0  0  0  0  0  2  0  0  0  0  0  0
    4.3670   -9.4500  -29.0740 C   0  0  0  0  0  0  0  0  0  0  0  0
    4.9680   -8.2400  -28.6880 C   0  0  0  0  0  3  0  0  0  0  0  0
    4.7740   -7.7630  -27.4050 C   0  0  0  0  0  3  0  0  0  0  0  0
    3.9930   -8.5010  -26.5210 C   0  0  0  0  0  3  0  0  0  0  0  0
    3.3980   -9.7360  -26.9030 C   0  0  0  0  0  0  0  0  0  0  0  0
    2.6220  -10.5410  -26.0420 C   0  0  0  0  0  0  0  0  0  0  0  0
    2.4270  -10.1520  -24.7210 N   0  0  0  0  0  0  0  0  0  0  0  0
    2.0360  -11.6730  -26.4610 N   0  0  0  0  0  0  0  0  0  0  0  0
    2.2650  -12.0360  -27.7240 C   0  0  0  0  0  3  0  0  0  0  0  0
    3.0240  -11.3800  -28.6050 N   0  0  0  0  0  0  0  0  0  0  0  0
    3.5740  -10.2190  -28.2110 C   0  0  0  0  0  0  0  0  0  0  0  0
    3.2420   -9.7500  -24.2740 H   0  0  0  0  0  0  0  0  0  0  0  0
    4.9740  -11.1950  -30.6120 N   0  0  0  0  0  0  0  0  0  0  0  0
    4.5850   -9.8920  -30.4640 C   0  0  0  0  0  0  0  0  0  0  0  0
    4.4880   -9.1300  -31.4160 O   0  0  0  0  0  0  0  0  0  0  0  0
    5.1360  -11.5280  -31.5530 H   0  0  0  0  0  0  0  0  0  0  0  0
    5.0390  -11.8450  -29.8440 H   0  0  0  0  0  0  0  0  0  0  0  0
    0.1760  -10.2140  -23.8800 C   0  0  0  0  0  0  0  0  0  0  0  0
   -0.9490  -10.9310  -24.3020 C   0  0  0  0  0  3  0  0  0  0  0  0
   -2.1760  -10.2870  -24.4340 C   0  0  0  0  0  3  0  0  0  0  0  0
   -2.2970   -8.9260  -24.1320 C   0  0  0  0  0  3  0  0  0  0  0  0
   -1.2010   -8.1980  -23.6720 C   0  0  0  0  0  0  0  0  0  0  0  0
    0.0380   -8.8500  -23.5730 C   0  0  0  0  0  3  0  0  0  0  0  0
   -1.2130   -6.8340  -23.3230 N   0  0  0  0  0  0  0  0  0  0  0  0
   -0.7050   -5.6970  -23.9030 C   0  0  0  0  0  0  0  0  0  0  0  0
   -0.7490   -4.6260  -23.2980 O   0  0  0  0  0  0  0  0  0  0  0  0
   -1.6950   -6.6030  -22.4610 H   0  0  0  0  0  0  0  0  0  0  0  0
   -0.0940   -5.6940  -25.2350 C   0  0  0  0  0  0  0  0  0  0  0  0
    0.7300   -6.7800  -25.5650 C   0  0  0  0  0  3  0  0  0  0  0  0
    1.3470   -6.8260  -26.8150 C   0  0  0  0  0  3  0  0  0  0  0  0
    1.1540   -5.7820  -27.7190 C   0  0  0  0  0  0  0  0  0  0  0  0
    1.9040   -5.8500  -29.2660 Cl  0  0  0  0  0  0  0  0  0  0  0  0
    0.3620   -4.6830  -27.3830 C   0  0  0  0  0  3  0  0  0  0  0  0
   -0.2550   -4.6300  -26.1300 C   0  0  0  0  0  0  0  0  0  0  0  0
   -1.1980   -3.2350  -25.7510 Cl  0  0  0  0  0  0  0  0  0  0  0  0
  2  3  2  0  0  0  0
  2 12  1  0  0  0  0
  3  4  1  0  0  0  0
  4  5  2  0  0  0  0
  6  5  1  0  0  0  0
  6  7  1  0  0  0  0
  7  8  1  0  0  0  0
  8 13  1  0  0  0  0
  8  1  1  0  0  0  0
  9  7  2  0  0  0  0
 10  9  1  0  0  0  0
 11 12  1  0  0  0  0
 11 10  2  0  0  0  0
 12  6  2  0  0  0  0
 14 15  1  0  0  0  0
 14 18  1  0  0  0  0
 15  2  1  0  0  0  0
 16 15  2  0  0  0  0
 17 14  1  0  0  0  0
 19  1  1  0  0  0  0
 19 24  1  0  0  0  0
 20 19  2  0  0  0  0
 21 20  1  0  0  0  0
 21 22  2  0  0  0  0
 22 23  1  0  0  0  0
 23 24  2  0  0  0  0
 23 25  1  0  0  0  0
 25 28  1  0  0  0  0
 26 25  1  0  0  0  0
 26 27  2  0  0  0  0
 29 26  1  0  0  0  0
 30 29  1  0  0  0  0
 31 30  2  0  0  0  0
 32 34  2  0  0  0  0
 32 31  1  0  0  0  0
 33 32  1  0  0  0  0
 34 35  1  0  0  0  0
 35 36  1  0  0  0  0
 35 29  2  0  0  0  0
M  END
>  <minimizedAffinity>
-7.76837349

$$$$
