REMARK  Name = 
REMARK  5 active torsions:
REMARK  status: ('A' for Active; 'I' for Inactive)
REMARK    1  A    between atoms: C_2  and  C_4
REMARK    2  A    between atoms: N_10  and  C_11
REMARK    3  A    between atoms: C_11  and  C_12
REMARK    4  A    between atoms: C_16  and  N_17
REMARK    5  A    between atoms: C_18  and  C_20
REMARK                            x       y       z     vdW  Elec       q    Type
REMARK                         _______ _______ _______ _____ _____    ______ ____
ROOT
ATOM      1  C   UNL     1       0.906  -1.172  -8.475  0.00  0.00    +0.138 C 
ENDROOT
BRANCH   1   8
ATOM      2  C   UNL     1       0.807  -1.066  -2.353  0.00  0.00    +0.063 A 
ATOM      3  C   UNL     1       1.813  -2.011  -2.091  0.00  0.00    +0.015 A 
ATOM      4  C   UNL     1       2.457  -2.630  -3.147  0.00  0.00    +0.002 A 
ATOM      5  C   UNL     1       2.098  -2.292  -4.448  0.00  0.00    +0.013 A 
ATOM      6  C   UNL     1       1.093  -1.322  -4.717  0.00  0.00    +0.041 A 
ATOM      7  C   UNL     1       0.709  -0.918  -6.014  0.00  0.00    +0.130 A 
ATOM      8  N   UNL     1       1.350  -1.458  -7.124  0.00  0.00    -0.324 N 
ATOM      9  N   UNL     1      -0.282  -0.037  -6.221  0.00  0.00    -0.220 NA
ATOM     10  C   UNL     1      -0.857   0.486  -5.137  0.00  0.00    +0.223 A 
ATOM     11  N   UNL     1      -0.536   0.217  -3.869  0.00  0.00    -0.235 NA
ATOM     12  C   UNL     1       0.420  -0.702  -3.650  0.00  0.00    +0.088 A 
ATOM     13  H   UNL     1       2.349  -1.580  -7.018  0.00  0.00    +0.148 HD
BRANCH   2  15
ATOM     14  N   UNL     1       0.929   0.315  -0.389  0.00  0.00    -0.325 N 
ATOM     15  C   UNL     1       0.135  -0.463  -1.187  0.00  0.00    +0.244 C 
ATOM     16  O   UNL     1      -1.034  -0.693  -0.914  0.00  0.00    -0.270 OA
ATOM     17  H   UNL     1       0.499   0.740   0.422  0.00  0.00    +0.145 HD
ATOM     18  H   UNL     1       1.889   0.535  -0.607  0.00  0.00    +0.145 HD
ENDBRANCH   2  15
ENDBRANCH   1   8
BRANCH   1  19
ATOM     19  C   UNL     1       2.091  -0.673  -9.272  0.00  0.00    -0.029 A 
ATOM     20  C   UNL     1       3.086  -1.561  -9.696  0.00  0.00    +0.005 A 
ATOM     21  C   UNL     1       4.220  -1.079 -10.342  0.00  0.00    +0.002 A 
ATOM     22  C   UNL     1       4.368   0.291 -10.585  0.00  0.00    +0.023 A 
ATOM     23  C   UNL     1       3.374   1.193 -10.208  0.00  0.00    +0.034 A 
ATOM     24  C   UNL     1       2.249   0.699  -9.529  0.00  0.00    +0.028 A 
BRANCH  23  25
ATOM     25  N   UNL     1       3.410   2.584 -10.418  0.00  0.00    -0.281 N 
ATOM     26  C   UNL     1       4.244   3.422 -11.118  0.00  0.00    +0.250 C 
ATOM     27  O   UNL     1       4.116   4.642 -11.018  0.00  0.00    -0.270 OA
ATOM     28  H   UNL     1       2.672   3.118  -9.971  0.00  0.00    +0.155 HD
BRANCH  26  29
ATOM     29  C   UNL     1       5.309   2.926 -11.994  0.00  0.00    +0.055 A 
ATOM     30  C   UNL     1       6.632   3.133 -11.576  0.00  0.00    +0.016 A 
ATOM     31  C   UNL     1       7.687   2.691 -12.374  0.00  0.00    +0.021 A 
ATOM     32  C   UNL     1       7.418   2.064 -13.590  0.00  0.00    +0.042 A 
ATOM     33 CL   UNL     1       8.722   1.506 -14.564  0.00  0.00    -0.083 Cl
ATOM     34  C   UNL     1       6.104   1.886 -14.026  0.00  0.00    +0.040 A 
ATOM     35  C   UNL     1       5.043   2.330 -13.232  0.00  0.00    +0.054 A 
ATOM     36 CL   UNL     1       3.439   2.115 -13.831  0.00  0.00    -0.083 Cl
ENDBRANCH  26  29
ENDBRANCH  23  25
ENDBRANCH   1  19
TORSDOF 5
